@<TRIPOS>MOLECULE
tmp/2ntfD00.pdb
 124 126 0 0 0
SMALL
GASTEIGER

@<TRIPOS>ATOM
      1  N        -25.6220  -12.3210   48.1670 N.3    33  TRP33      -0.1241
      2  CA       -25.2290  -12.0840   46.7820 C.3    33  TRP33       0.1605
      3  C        -24.8280  -10.6490   46.6130 C.2    33  TRP33       0.2264
      4  O        -25.3180   -9.7920   47.3310 O.2    33  TRP33      -0.2867
      5  CB       -26.4020  -12.2900   45.8580 C.3    33  TRP33       0.0550
      6  CG       -26.8650  -13.6300   45.7820 C.ar   33  TRP33       0.0003
      7  CD1      -27.6560  -14.2630   46.6710 C.ar   33  TRP33       0.0946
      8  CD2      -26.6150  -14.5480   44.7280 C.ar   33  TRP33       0.0152
      9  NE1      -27.9050  -15.5390   46.2510 N.ar   33  TRP33      -0.2442
     10  CE2      -27.2810  -15.7390   45.0520 C.ar   33  TRP33       0.0810
     11  CE3      -25.8700  -14.4900   43.5460 C.ar   33  TRP33       0.0012
     12  CZ2      -27.2360  -16.8670   44.2390 C.ar   33  TRP33       0.0191
     13  CZ3      -25.8160  -15.6100   42.7400 C.ar   33  TRP33       0.0001
     14  CH2      -26.5000  -16.7820   43.0880 C.ar   33  TRP33       0.0015
     15  N        -24.9010   -7.7020   43.5450 N.3    35  HIS35      -0.1241
     16  CA       -25.4080   -7.3350   42.2210 C.3    35  HIS35       0.1621
     17  C        -24.7550   -6.0670   41.7310 C.2    35  HIS35       0.2264
     18  O        -24.4940   -5.1780   42.5300 O.2    35  HIS35      -0.2867
     19  CB       -26.8740   -7.0100   42.3160 C.3    35  HIS35       0.0745
     20  CG       -27.7150   -8.1810   42.6610 C.ar   35  HIS35       0.0817
     21  ND1      -28.5130   -8.8220   41.7410 N.ar   35  HIS35      -0.2268
     22  CD2      -27.8640   -8.8490   43.8240 C.ar   35  HIS35       0.1154
     23  CE1      -29.1200   -9.8370   42.3210 C.ar   35  HIS35       0.1986
     24  NE2      -28.7410   -9.8770   43.5850 N.ar   35  HIS35      -0.2212
     25  N        -29.4710   -3.8110   34.8110 N.3    47  TRP47      -0.1241
     26  CA       -28.8880   -4.8950   35.5930 C.3    47  TRP47       0.1605
     27  C        -27.7280   -5.5330   34.8300 C.2    47  TRP47       0.2264
     28  O        -27.8310   -5.8250   33.6460 O.2    47  TRP47      -0.2867
     29  CB       -29.9520   -5.9480   35.9070 C.3    47  TRP47       0.0550
     30  CG       -29.5200   -6.9070   36.9350 C.ar   47  TRP47       0.0003
     31  CD1      -29.4640   -6.6820   38.2610 C.ar   47  TRP47       0.0946
     32  CD2      -29.0770   -8.2470   36.7330 C.ar   47  TRP47       0.0152
     33  NE1      -29.0080   -7.7920   38.9090 N.ar   47  TRP47      -0.2442
     34  CE2      -28.7630   -8.7720   37.9920 C.ar   47  TRP47       0.0810
     35  CE3      -28.9120   -9.0540   35.6080 C.ar   47  TRP47       0.0012
     36  CZ2      -28.2970  -10.0660   38.1680 C.ar   47  TRP47       0.0191
     37  CZ3      -28.4500  -10.3520   35.7830 C.ar   47  TRP47       0.0001
     38  CH2      -28.1470  -10.8390   37.0550 C.ar   47  TRP47       0.0015
     39  N        -24.9810  -10.6480   38.8950 N.3    50  THR50      -0.1218
     40  CA       -24.8710  -10.8940   40.3210 C.3    50  THR50       0.1862
     41  C        -23.9110  -12.0440   40.5810 C.2    50  THR50       0.2287
     42  O        -23.7410  -12.9280   39.7340 O.2    50  THR50      -0.2866
     43  CB       -26.2310  -11.2080   40.9390 C.3    50  THR50       0.1770
     44  OG1      -26.1260  -11.0980   42.3540 O.3    50  THR50      -0.2211
     45  CG2      -26.6950  -12.5970   40.5830 C.3    50  THR50       0.0375
     46  N        -24.8430  -15.0150   37.7010 N.3    59  TYR59      -0.1241
     47  CA       -25.7380  -14.8920   36.5630 C.3    59  TYR59       0.1605
     48  C        -25.4560  -13.5460   35.9890 C.2    59  TYR59       0.2264
     49  O        -25.5430  -12.5550   36.7050 O.2    59  TYR59      -0.2867
     50  CB       -27.2030  -14.9120   36.9200 C.3    59  TYR59       0.0534
     51  CG       -27.7590  -16.1890   37.4880 C.ar   59  TYR59      -0.0201
     52  CD1      -27.5100  -16.5420   38.7990 C.ar   59  TYR59      -0.0009
     53  CD2      -28.6070  -16.9970   36.7500 C.ar   59  TYR59      -0.0009
     54  CE1      -28.0550  -17.6810   39.3530 C.ar   59  TYR59       0.0417
     55  CE2      -29.1540  -18.1490   37.3010 C.ar   59  TYR59       0.0417
     56  CZ       -28.8690  -18.4820   38.6050 C.ar   59  TYR59       0.1957
     57  OH       -29.3960  -19.6110   39.1780 O.3    59  TYR59      -0.2866
     58  N        -27.8590   -8.3760   47.7050 N.3    99  GLY99      -0.1210
     59  CA       -29.1220   -9.0490   47.3970 C.3    99  GLY99       0.1956
     60  C        -29.7490   -9.9600   48.4610 C.2    99  GLY99       0.2612
     61  O        -30.2260   -9.5020   49.5060 O.2    99  GLY99      -0.2717
     62  N        -29.7840  -11.2550   48.1650 N.am  100  SER100     -0.1952
     63  CA       -30.4690  -12.2320   49.0070 C.3   100  SER100      0.1924
     64  C        -29.5280  -12.9490   49.9700 C.2   100  SER100      0.2314
     65  O        -28.2980  -12.8660   49.8540 O.2   100  SER100     -0.2863
     66  CB       -31.1790  -13.3020   48.1550 C.3   100  SER100      0.2116
     67  OG       -32.5650  -13.0490   48.0040 O.3   100  SER100     -0.2180
     68  N        -29.0870  -19.1210   48.0970 N.3   103  TYR103     -0.1227
     69  CA       -29.6880  -19.3640   46.8020 C.3   103  TYR103      0.1736
     70  C        -31.1800  -19.3020   46.9310 C.2   103  TYR103      0.2595
     71  O        -31.7900  -20.2710   47.3490 O.2   103  TYR103     -0.2718
     72  CB       -29.3490  -20.7650   46.3450 C.3   103  TYR103      0.0548
     73  CG       -27.8940  -21.0620   46.1250 C.ar  103  TYR103     -0.0200
     74  CD1      -27.2450  -20.6150   44.9610 C.ar  103  TYR103     -0.0009
     75  CD2      -27.1650  -21.8540   47.0600 C.ar  103  TYR103     -0.0009
     76  CE1      -25.8830  -20.9270   44.7230 C.ar  103  TYR103      0.0417
     77  CE2      -25.8080  -22.1840   46.8440 C.ar  103  TYR103      0.0417
     78  CZ       -25.1710  -21.7190   45.6650 C.ar  103  TYR103      0.1957
     79  OH       -23.8370  -22.0330   45.4330 O.3   103  TYR103     -0.2866
     80  N        -31.7510  -18.1570   46.5850 N.am  104  ASN104     -0.1960
     81  CA       -33.1930  -17.8850   46.6970 C.3   104  ASN104      0.1819
     82  C        -33.4540  -16.4540   46.2630 C.2   104  ASN104      0.2621
     83  O        -32.5710  -15.5910   46.2780 O.2   104  ASN104     -0.2715
     84  CB       -33.7280  -18.0490   48.1280 C.3   104  ASN104      0.1195
     85  CG       -33.7010  -16.7550   48.9080 C.2   104  ASN104      0.2630
     86  OD1      -34.6970  -16.3440   49.4550 O.2   104  ASN104     -0.2716
     87  ND2      -32.5650  -16.0960   48.9400 N.am  104  ASN104     -0.0877
     88  N        -34.6830  -16.1850   45.8860 N.am  105  ASN105     -0.1972
     89  CA       -35.0220  -14.8400   45.4710 C.3   105  ASN105      0.1688
     90  C        -35.9950  -14.2100   46.4410 C.2   105  ASN105      0.2292
     91  O        -36.8370  -13.3870   46.0520 O.2   105  ASN105     -0.2864
     92  CB       -35.5840  -14.8540   44.0500 C.3   105  ASN105      0.1181
     93  CG       -34.5580  -14.4320   43.0170 C.2   105  ASN105      0.2629
     94  OD1      -33.5210  -13.8530   43.3570 O.2   105  ASN105     -0.2716
     95  ND2      -34.8410  -14.7140   41.7450 N.am  105  ASN105     -0.0877
     96  N        -35.3030  -12.2340   48.9210 N.3   107  GLY107     -0.1210
     97  CA       -34.8050  -11.0100   49.5710 C.3   107  GLY107      0.1956
     98  C        -35.1020   -9.6900   48.8790 C.2   107  GLY107      0.2612
     99  O        -36.1620   -9.5070   48.2640 O.2   107  GLY107     -0.2717
    100  N        -34.1580   -8.7640   49.0000 N.am  108  TRP108     -0.1962
    101  CA       -34.3090   -7.4230   48.4640 C.3   108  TRP108      0.1771
    102  C        -33.0040   -6.9100   47.9340 C.2   108  TRP108      0.2619
    103  O        -31.9500   -7.4060   48.3090 O.2   108  TRP108     -0.2715
    104  CB       -34.6630   -6.4460   49.5730 C.3   108  TRP108      0.0590
    105  CG       -35.9400   -6.6740   50.2940 C.ar  108  TRP108      0.0006
    106  CD1      -37.1550   -6.1230   49.9960 C.ar  108  TRP108      0.0946
    107  CD2      -36.1280   -7.4530   51.4870 C.ar  108  TRP108      0.0152
    108  NE1      -38.0950   -6.5500   50.9080 N.ar  108  TRP108     -0.2442
    109  CE2      -37.4890   -7.3620   51.8350 C.ar  108  TRP108      0.0810
    110  CE3      -35.2870   -8.2480   52.2710 C.ar  108  TRP108      0.0012
    111  CZ2      -38.0200   -8.0230   52.9290 C.ar  108  TRP108      0.0191
    112  CZ3      -35.8240   -8.9040   53.3590 C.ar  108  TRP108      0.0001
    113  CH2      -37.1700   -8.7830   53.6770 C.ar  108  TRP108      0.0015
    114  N        -33.0670   -5.8750   47.1020 N.am  109  PHE109     -0.1974
    115  CA       -31.8860   -5.0170   46.8710 C.3   109  PHE109      0.1639
    116  C        -31.7780   -4.1400   48.1430 C.2   109  PHE109      0.2290
    117  O        -32.3280   -3.0220   48.2090 O.2   109  PHE109     -0.2864
    118  CB       -32.0360   -4.1840   45.5760 C.3   109  PHE109      0.0560
    119  CG       -32.1970   -5.0320   44.3280 C.ar  109  PHE109     -0.0200
    120  CD1      -31.1300   -5.7990   43.8530 C.ar  109  PHE109     -0.0042
    121  CD2      -33.4120   -5.1000   43.6570 C.ar  109  PHE109     -0.0042
    122  CE1      -31.2720   -6.5990   42.7240 C.ar  109  PHE109     -0.0003
    123  CE2      -33.5500   -5.9010   42.5280 C.ar  109  PHE109     -0.0003
    124  CZ       -32.4860   -6.6510   42.0680 C.ar  109  PHE109     -0.0000
@<TRIPOS>BOND
     1    28    27    2
     2    25    26    1
     3    27    26    1
     4    26    29    1
     5    35    37   ar
     6    35    32   ar
     7    37    38   ar
     8    29    30    1
     9    48    47    1
    10    48    49    2
    11    47    50    1
    12    47    46    1
    13    32    30   ar
    14    32    34   ar
    15    53    55   ar
    16    53    51   ar
    17    50    51    1
    18    30    31   ar
    19    38    36   ar
    20    55    56   ar
    21    51    52   ar
    22    34    36   ar
    23    34    33   ar
    24    31    33   ar
    25    56    57    1
    26    56    54   ar
    27    52    54   ar
    28    39    40    1
    29    42    41    2
    30    40    41    1
    31    40    43    1
    32    45    43    1
    33    43    44    1
    34    17    16    1
    35    17    18    2
    36    21    23   ar
    37    21    20   ar
    38    95    93   am
    39   124   123   ar
    40   124   122   ar
    41    16    19    1
    42    16    15    1
    43    19    20    1
    44    23    24   ar
    45   123   121   ar
    46    20    22   ar
    47   122   120   ar
    48    13    14   ar
    49    13    11   ar
    50    93    94    2
    51    93    92    1
    52    14    12   ar
    53    11     8   ar
    54    24    22   ar
    55   121   119   ar
    56   120   119   ar
    57    92    89    1
    58    12    10   ar
    59   119   118    1
    60    76    74   ar
    61    76    78   ar
    62     8    10   ar
    63     8     6   ar
    64    74    73   ar
    65    10     9   ar
    66    79    78    1
    67    89    88    1
    68    89    90    1
    69   118   115    1
    70    78    77   ar
    71     6     5    1
    72     6     7   ar
    73     5     2    1
    74    88    82   am
    75    91    90    2
    76    73    72    1
    77    73    75   ar
    78     9     7   ar
    79    82    83    2
    80    82    81    1
    81    72    69    1
    82    80    81    1
    83    80    70   am
    84     3     2    1
    85     3     4    2
    86    81    84    1
    87     2     1    1
    88    69    70    1
    89    69    68    1
    90    77    75   ar
    91   115   114    1
    92   115   116    1
    93    70    71    2
    94   114   102   am
    95    59    58    1
    96    59    60    1
    97   102   103    2
    98   102   101    1
    99    67    66    1
   100    84    85    1
   101   116   117    2
   102    66    63    1
   103    62    60   am
   104    62    63    1
   105    99    98    2
   106    60    61    2
   107   101   100    1
   108   101   104    1
   109    98   100   am
   110    98    97    1
   111    85    87   am
   112    85    86    2
   113    96    97    1
   114    63    64    1
   115   104   105    1
   116    65    64    2
   117   106   105   ar
   118   106   108   ar
   119   105   107   ar
   120   108   109   ar
   121   107   109   ar
   122   107   110   ar
   123   109   111   ar
   124   110   112   ar
   125   111   113   ar
   126   112   113   ar
