@<TRIPOS>MOLECULE
tmp/2ntiH00.pdb
 125 123 0 0 0
SMALL
GASTEIGER

@<TRIPOS>ATOM
      1  N         28.1520  128.9210   40.7820 N.3    40  ILE40      -0.1245
      2  CA        29.0500  129.3960   39.7410 C.3    40  ILE40       0.1561
      3  C         30.4720  129.1330   40.2380 C.2    40  ILE40       0.2260
      4  O         30.7990  129.4820   41.3610 O.2    40  ILE40      -0.2867
      5  CB        28.8420  130.9150   39.5250 C.3    40  ILE40       0.0252
      6  CG1       27.4250  131.1830   39.0120 C.3    40  ILE40       0.0019
      7  CG2       29.8930  131.4870   38.5770 C.3    40  ILE40       0.0019
      8  CD1       27.0540  132.6690   38.9250 C.3    40  ILE40       0.0001
      9  N         34.1620  131.8110   37.0320 N.3    44  ARG44      -0.1231
     10  CA        32.9170  132.2970   36.4230 C.3    44  ARG44       0.1694
     11  C         32.6250  131.7390   35.0160 C.2    44  ARG44       0.2592
     12  O         31.9980  132.4070   34.1880 O.2    44  ARG44      -0.2718
     13  CB        32.8490  133.8250   36.4210 C.3    44  ARG44       0.0321
     14  CG        32.5030  134.4710   37.7660 C.3    44  ARG44       0.0489
     15  CD        33.7070  135.1700   38.3870 C.3    44  ARG44       0.2205
     16  NE        34.5770  135.7710   37.3640 N.pl3  44  ARG44      -0.0865
     17  CZ        35.8880  135.5470   37.2300 C.cat  44  ARG44       0.5346
     18  NH1       36.5400  134.7510   38.0740 N.pl3  44  ARG44       0.1354
     19  NH2       36.5530  136.1410   36.2460 N.pl3  44  ARG44       0.1354
     20  N         33.0670  130.5110   34.7540 N.am   45  VAL45      -0.1966
     21  CA        32.8900  129.8920   33.4380 C.3    45  VAL45       0.1727
     22  C         31.7490  128.8770   33.4410 C.2    45  VAL45       0.2616
     23  O         31.0880  128.6640   32.4210 O.2    45  VAL45      -0.2715
     24  CB        34.2010  129.2430   32.9390 C.3    45  VAL45       0.0290
     25  CG1       33.9640  128.4250   31.6840 C.3    45  VAL45       0.0023
     26  CG2       35.2450  130.3110   32.6800 C.3    45  VAL45       0.0023
     27  N         31.5120  128.2500   34.5850 N.am   46  VAL46      -0.1963
     28  CA        30.4500  127.2660   34.6520 C.3    46  VAL46       0.1727
     29  C         29.3810  127.5940   35.6650 C.2    46  VAL46       0.2616
     30  O         29.6760  127.9610   36.7950 O.2    46  VAL46      -0.2715
     31  CB        30.9640  125.7870   34.7700 C.3    46  VAL46       0.0290
     32  CG1       32.4580  125.7280   34.9340 C.3    46  VAL46       0.0023
     33  CG2       30.2480  125.0290   35.8650 C.3    46  VAL46       0.0023
     34  N         28.1340  127.4840   35.2190 N.am   47  PHE47      -0.1974
     35  CA        27.0070  127.4630   36.1150 C.3    47  PHE47       0.1639
     36  C         26.5180  126.0170   36.2430 C.2    47  PHE47       0.2290
     37  O         26.3410  125.3060   35.2470 O.2    47  PHE47      -0.2864
     38  CB        25.8880  128.3580   35.5990 C.3    47  PHE47       0.0560
     39  CG        24.7440  128.4860   36.5410 C.ar   47  PHE47      -0.0200
     40  CD1       24.6840  129.5380   37.4380 C.ar   47  PHE47      -0.0042
     41  CD2       23.7310  127.5470   36.5510 C.ar   47  PHE47      -0.0042
     42  CE1       23.6250  129.6530   38.3330 C.ar   47  PHE47      -0.0003
     43  CE2       22.6800  127.6560   37.4360 C.ar   47  PHE47      -0.0003
     44  CZ        22.6240  128.7110   38.3290 C.ar   47  PHE47      -0.0000
     45  N         24.1970  133.3890   48.3210 N.3   119  SER119     -0.1202
     46  CA        23.1020  132.9170   47.5220 C.3   119  SER119      0.2020
     47  C         23.4520  133.1080   46.0670 C.2   119  SER119      0.2619
     48  O         23.7000  134.2190   45.6240 O.2   119  SER119     -0.2717
     49  CB        21.8190  133.6720   47.8720 C.3   119  SER119      0.2103
     50  OG        21.2900  133.2190   49.1110 O.3   119  SER119     -0.2182
     51  N         23.5100  132.0080   45.3290 N.am  120  THR120     -0.1938
     52  CA        23.4770  132.0820   43.8720 C.3   120  THR120      0.2028
     53  C         22.0600  131.7650   43.4020 C.2   120  THR120      0.2642
     54  O         21.4900  130.7360   43.7690 O.2   120  THR120     -0.2714
     55  CB        24.5910  131.2300   43.1610 C.3   120  THR120      0.1808
     56  OG1       24.0610  130.5980   41.9850 O.3   120  THR120     -0.2208
     57  CG2       25.1600  130.1690   44.0740 C.3   120  THR120      0.0379
     58  N         21.4870  132.6810   42.6280 N.am  121  GLN121     -0.1963
     59  CA        20.1390  132.5150   42.0960 C.3   121  GLN121      0.1718
     60  C         20.0950  131.4270   41.0270 C.2   121  GLN121      0.2458
     61  O         20.9420  131.4080   40.1310 O.2   121  GLN121     -0.2730
     62  CB        19.5920  133.8400   41.5290 C.3   121  GLN121      0.0407
     63  CG        19.6360  135.0390   42.4900 C.3   121  GLN121      0.0908
     64  CD        19.2480  134.6910   43.9290 C.2   121  GLN121      0.2608
     65  OE1       18.3960  133.8250   44.1740 O.2   121  GLN121     -0.2717
     66  NE2       19.8810  135.3700   44.8900 N.am  121  GLN121     -0.0878
     67  N         19.0950  130.5270   41.1160 N.am  122  PRO122     -0.2716
     68  CA        18.9220  129.4070   40.1860 C.3   122  PRO122      0.1521
     69  C         18.5250  129.9000   38.7930 C.2   122  PRO122      0.2440
     70  O         18.0000  131.0110   38.6780 O.2   122  PRO122     -0.2731
     71  CB        17.7830  128.6030   40.8190 C.3   122  PRO122      0.0310
     72  CG        17.0140  129.6010   41.6050 C.3   122  PRO122      0.0237
     73  CD        18.0340  130.5530   42.1410 C.3   122  PRO122      0.0939
     74  N         18.7580  129.0800   37.7410 N.am  123  PRO123     -0.2716
     75  CA        18.5270  129.5240   36.3640 C.3   123  PRO123      0.1536
     76  C         17.1590  130.1810   36.2020 C.2   123  PRO123      0.2599
     77  O         16.1330  129.5920   36.5580 O.2   123  PRO123     -0.2715
     78  CB        18.5940  128.2220   35.5570 C.3   123  PRO123      0.0310
     79  CG        19.4650  127.3430   36.3410 C.3   123  PRO123      0.0237
     80  CD        19.2220  127.6790   37.7860 C.3   123  PRO123      0.0939
     81  N         17.1710  131.4040   35.6820 N.am  124  SER124     -0.1936
     82  CA        15.9590  132.2080   35.5050 C.3   124  SER124      0.2055
     83  C         15.1140  131.7220   34.3180 C.2   124  SER124      0.2642
     84  O         14.1440  130.9770   34.5000 O.2   124  SER124     -0.2714
     85  CB        16.3190  133.7030   35.3650 C.3   124  SER124      0.2130
     86  OG        17.5110  133.8880   34.5970 O.3   124  SER124     -0.2179
     87  N         15.4950  132.1420   33.1110 N.am  125  VAL125     -0.1977
     88  CA        14.7620  131.7900   31.8930 C.3   125  VAL125      0.1596
     89  C         15.1980  130.4260   31.3590 C.2   125  VAL125      0.2287
     90  O         16.1190  129.8050   31.8970 O.2   125  VAL125     -0.2864
     91  CB        14.9510  132.8660   30.7700 C.3   125  VAL125      0.0276
     92  CG1       14.2870  134.1900   31.1550 C.3   125  VAL125      0.0022
     93  CG2       16.4400  133.0710   30.4320 C.3   125  VAL125      0.0022
     94  N         16.9260  128.8380   27.9390 N.3   127  LEU127     -0.1245
     95  CA        17.7500  129.3190   26.8340 C.3   127  LEU127      0.1561
     96  C         17.4230  128.5550   25.5500 C.2   127  LEU127      0.2260
     97  O         16.7530  127.5140   25.5810 O.2   127  LEU127     -0.2867
     98  CB        19.2360  129.1930   27.1800 C.3   127  LEU127      0.0270
     99  CG        19.6870  129.7720   28.5310 C.3   127  LEU127      0.0019
    100  CD1       21.0720  129.2440   28.8930 C.3   127  LEU127      0.0001
    101  CD2       19.6550  131.3130   28.5510 C.3   127  LEU127      0.0001
    102  N         26.7190  128.7430   25.4860 N.3   224  PRO224     -0.2116
    103  CA        27.2920  127.7730   26.4240 C.3   224  PRO224      0.1372
    104  C         27.0020  126.3310   26.0260 C.2   224  PRO224      0.2244
    105  O         25.9970  126.0650   25.3540 O.2   224  PRO224     -0.2868
    106  CB        26.6120  128.1090   27.7600 C.3   224  PRO224      0.0268
    107  CG        25.4260  128.9500   27.4040 C.3   224  PRO224      0.0207
    108  CD        25.7690  129.6600   26.1460 C.3   224  PRO224      0.0892
    109  N         26.3770  124.2180   32.7860 N.3   240  TYR240     -0.1241
    110  CA        26.4590  125.1580   31.6760 C.3   240  TYR240      0.1605
    111  C         27.8760  125.6720   31.6040 C.2   240  TYR240      0.2264
    112  O         28.3850  126.2460   32.5650 O.2   240  TYR240     -0.2867
    113  CB        25.5480  126.3440   31.9160 C.3   240  TYR240      0.0534
    114  CG        24.0870  126.0230   32.0720 C.ar  240  TYR240     -0.0201
    115  CD1       23.6010  125.4830   33.2630 C.ar  240  TYR240     -0.0009
    116  CD2       23.1770  126.3030   31.0390 C.ar  240  TYR240     -0.0009
    117  CE1       22.2540  125.2120   33.4310 C.ar  240  TYR240      0.0417
    118  CE2       21.8150  126.0320   31.1950 C.ar  240  TYR240      0.0417
    119  CZ        21.3660  125.4820   32.4020 C.ar  240  TYR240      0.1957
    120  OH        20.0400  125.2020   32.5940 O.3   240  TYR240     -0.2866
    121  N         30.6380  128.0270   29.6830 N.3   242  ALA242     -0.1245
    122  CA        30.8050  129.1630   28.7850 C.3   242  ALA242      0.1562
    123  C         31.7600  128.8090   27.6520 C.2   242  ALA242      0.2260
    124  O         32.7170  128.0620   27.8730 O.2   242  ALA242     -0.2867
    125  CB        31.3100  130.3780   29.5490 C.3   242  ALA242      0.0290
@<TRIPOS>BOND
     1   105   104    2
     2   102   108    1
     3   102   103    1
     4    96    97    2
     5    96    95    1
     6   104   103    1
     7   108   107    1
     8   103   106    1
     9    95    98    1
    10    95    94    1
    11    98    99    1
    12   107   106    1
    13   123   124    2
    14   123   122    1
    15    99   101    1
    16    99   100    1
    17   122   125    1
    18   122   121    1
    19    93    91    1
    20    91    92    1
    21    91    88    1
    22   116   118   ar
    23   116   114   ar
    24   118   119   ar
    25    89    88    1
    26    89    90    2
    27   111   110    1
    28   111   112    2
    29   110   113    1
    30   110   109    1
    31    25    24    1
    32    88    87    1
    33   113   114    1
    34   114   115   ar
    35   119   120    1
    36   119   117   ar
    37    23    22    2
    38    26    24    1
    39    24    21    1
    40    87    83   am
    41   115   117   ar
    42    21    22    1
    43    21    20    1
    44    22    27   am
    45    12    11    2
    46    83    84    2
    47    83    82    1
    48    27    28    1
    49    86    85    1
    50    28    31    1
    51    28    29    1
    52    20    11   am
    53    31    32    1
    54    31    33    1
    55    11    10    1
    56    34    29   am
    57    34    35    1
    58    37    36    2
    59    85    82    1
    60    82    81    1
    61    78    79    1
    62    78    75    1
    63    38    35    1
    64    38    39    1
    65    29    30    2
    66    81    76   am
    67    35    36    1
    68    76    75    1
    69    76    77    2
    70    19    17    1
    71    79    80    1
    72    75    74    1
    73    13    10    1
    74    13    14    1
    75    10     9    1
    76    39    41   ar
    77    39    40   ar
    78    41    43   ar
    79    17    16    2
    80    17    18    1
    81    16    15    1
    82    43    44   ar
    83    40    42   ar
    84    74    80    1
    85    74    69   am
    86    14    15    1
    87    44    42   ar
    88     7     5    1
    89    70    69    2
    90    69    68    1
    91     8     6    1
    92     6     5    1
    93     5     2    1
    94     2     3    1
    95     2     1    1
    96    61    60    2
    97    68    71    1
    98    68    67    1
    99     3     4    2
   100    71    72    1
   101    60    67   am
   102    60    59    1
   103    67    73    1
   104    62    59    1
   105    62    63    1
   106    72    73    1
   107    56    55    1
   108    59    58    1
   109    63    64    1
   110    58    53   am
   111    55    52    1
   112    55    57    1
   113    53    54    2
   114    53    52    1
   115    52    51    1
   116    64    65    2
   117    64    66   am
   118    51    47   am
   119    48    47    2
   120    47    46    1
   121    46    49    1
   122    46    45    1
   123    49    50    1
