@<TRIPOS>MOLECULE
tmp/2ntkB00.pdb
 176 168 0 0 0
SMALL
GASTEIGER

@<TRIPOS>ATOM
      1  N          4.8130   24.9500   10.2500 N.3     2  TYR2       -0.1241
      2  CA         4.5590   23.6150    9.7160 C.3     2  TYR2        0.1605
      3  C          5.9050   22.9530    9.4800 C.2     2  TYR2        0.2264
      4  O          6.6560   23.3600    8.5940 O.2     2  TYR2       -0.2867
      5  CB         3.7920   23.6690    8.3960 C.3     2  TYR2        0.0534
      6  CG         3.5400   22.2960    7.8060 C.ar    2  TYR2       -0.0201
      7  CD1        2.7940   21.3450    8.5000 C.ar    2  TYR2       -0.0009
      8  CD2        4.0420   21.9510    6.5540 C.ar    2  TYR2       -0.0009
      9  CE1        2.5520   20.0890    7.9610 C.ar    2  TYR2        0.0417
     10  CE2        3.8050   20.6870    6.0060 C.ar    2  TYR2        0.0417
     11  CZ         3.0580   19.7640    6.7180 C.ar    2  TYR2        0.1957
     12  OH         2.8140   18.5140    6.1950 O.3     2  TYR2       -0.2866
     13  N          7.0060   16.0690    8.9110 N.3     5  ARG5       -0.1245
     14  CA         7.2520   14.9180    9.7850 C.3     5  ARG5        0.1563
     15  C          8.3830   15.2340   10.7510 C.2     5  ARG5        0.2260
     16  O          9.4130   15.8030   10.3710 O.2     5  ARG5       -0.2867
     17  CB         7.5540   13.6650    8.9560 C.3     5  ARG5        0.0307
     18  CG         6.2920   12.9120    8.4820 C.3     5  ARG5        0.0489
     19  CD         5.3130   13.8260    7.7410 C.3     5  ARG5        0.2205
     20  NE         5.8640   14.3150    6.4830 N.pl3   5  ARG5       -0.0865
     21  CZ         5.2410   15.1610    5.6640 C.cat   5  ARG5        0.5346
     22  NH1        4.0350   15.6220    5.9710 N.pl3   5  ARG5        0.1354
     23  NH2        5.8160   15.5300    4.5310 N.pl3   5  ARG5        0.1354
     24  N          3.5800   12.5040   12.8200 N.3    22  VAL22      -0.1245
     25  CA         3.1880   12.8210   11.4700 C.3    22  VAL22       0.1561
     26  C          2.3690   14.1060   11.5090 C.2    22  VAL22       0.2260
     27  O          1.3900   14.2110   12.2630 O.2    22  VAL22      -0.2867
     28  CB         2.3020   11.7190   10.8430 C.3    22  VAL22       0.0252
     29  CG1        1.7800   12.1840    9.4900 C.3    22  VAL22       0.0019
     30  CG2        3.0870   10.4420   10.6770 C.3    22  VAL22       0.0019
     31  N          0.6550   16.6120    8.6140 N.3    24  SER24      -0.1202
     32  CA         0.3900   16.5230    7.1880 C.3    24  SER24       0.2020
     33  C         -0.7600   17.4140    6.7380 C.2    24  SER24       0.2619
     34  O         -1.7360   17.5910    7.4570 O.2    24  SER24      -0.2717
     35  CB         0.0880   15.0680    6.8130 C.3    24  SER24       0.2103
     36  OG        -0.0460   14.9130    5.4100 O.3    24  SER24      -0.2182
     37  N         -0.6280   17.9750    5.5450 N.am   25  ARG25      -0.1965
     38  CA        -1.6650   18.8250    4.9860 C.3    25  ARG25       0.1729
     39  C         -2.4400   18.0580    3.9230 C.2    25  ARG25       0.2617
     40  O         -3.6670   18.0070    3.9520 O.2    25  ARG25      -0.2715
     41  CB        -1.0490   20.0760    4.3660 C.3    25  ARG25       0.0348
     42  CG        -0.4340   21.0180    5.3860 C.3    25  ARG25       0.0492
     43  CD         0.3720   22.1160    4.7190 C.3    25  ARG25       0.2205
     44  NE         1.4600   21.5580    3.9220 N.pl3  25  ARG25      -0.0865
     45  CZ         2.5210   22.2470    3.5160 C.cat  25  ARG25       0.5346
     46  NH1        2.6400   23.5320    3.8350 N.pl3  25  ARG25       0.1354
     47  NH2        3.4680   21.6470    2.8010 N.pl3  25  ARG25       0.1354
     48  N         -1.7200   17.4370    3.0020 N.am   26  SER26      -0.1936
     49  CA        -2.3580   16.7050    1.9160 C.3    26  SER26       0.2055
     50  C         -2.7180   15.2460    2.1990 C.2    26  SER26       0.2643
     51  O         -3.4760   14.6450    1.4500 O.2    26  SER26      -0.2714
     52  CB        -1.4820   16.7890    0.6640 C.3    26  SER26       0.2130
     53  OG        -0.1890   16.2830    0.9240 O.3    26  SER26      -0.2179
     54  N         -2.1800   14.6720    3.2710 N.am   27  PHE27      -0.1973
     55  CA        -2.4800   13.2800    3.6080 C.3    27  PHE27       0.1639
     56  C         -2.7140   13.1230    5.1020 C.2    27  PHE27       0.2290
     57  O         -1.9690   12.4280    5.7920 O.2    27  PHE27      -0.2864
     58  CB        -1.3430   12.3530    3.1560 C.3    27  PHE27       0.0560
     59  CG        -1.2210   12.2290    1.6640 C.ar   27  PHE27      -0.0200
     60  CD1       -0.3480   13.0410    0.9540 C.ar   27  PHE27      -0.0042
     61  CD2       -2.0120   11.3180    0.9640 C.ar   27  PHE27      -0.0042
     62  CE1       -0.2600   12.9520   -0.4410 C.ar   27  PHE27      -0.0003
     63  CE2       -1.9330   11.2220   -0.4250 C.ar   27  PHE27      -0.0003
     64  CZ        -1.0540   12.0410   -1.1300 C.ar   27  PHE27      -0.0000
     65  N         -4.3560    9.3900    8.1010 N.3    30  ARG30      -0.1245
     66  CA        -3.4480    8.3150    8.4720 C.3    30  ARG30       0.1563
     67  C         -3.3710    8.1460    9.9860 C.2    30  ARG30       0.2260
     68  O         -3.6770    9.0650   10.7380 O.2    30  ARG30      -0.2867
     69  CB        -2.0450    8.6000    7.9080 C.3    30  ARG30       0.0307
     70  CG        -1.9490    8.5080    6.3940 C.3    30  ARG30       0.0489
     71  CD        -0.5280    8.7870    5.9050 C.3    30  ARG30       0.2205
     72  NE        -0.2170   10.2120    5.9360 N.pl3  30  ARG30      -0.0865
     73  CZ         1.0110   10.7170    5.8760 C.cat  30  ARG30       0.5346
     74  NH1        2.0660    9.9130    5.7950 N.pl3  30  ARG30       0.1354
     75  NH2        1.1870   12.0350    5.8720 N.pl3  30  ARG30       0.1354
     76  N          0.5980    8.0580   -3.6390 N.3    54  ASN54      -0.1240
     77  CA         1.8740    8.6040   -3.1950 C.3    54  ASN54       0.1653
     78  C          2.6080    7.4860   -2.4580 C.2    54  ASN54       0.2266
     79  O          2.0970    6.9410   -1.4840 O.2    54  ASN54      -0.2867
     80  CB         1.6460    9.8000   -2.2670 C.3    54  ASN54       0.1155
     81  CG         2.9430   10.4940   -1.8830 C.2    54  ASN54       0.2627
     82  OD1        3.8160    9.8950   -1.2640 O.2    54  ASN54      -0.2716
     83  ND2        3.0730   11.7620   -2.2600 N.am   54  ASN54      -0.0877
     84  N          5.1860    7.6630   -0.5500 N.3    56  TYR56      -0.1227
     85  CA         5.8780    8.0830    0.6600 C.3    56  TYR56       0.1736
     86  C          4.9990    8.2460    1.8890 C.2    56  TYR56       0.2595
     87  O          5.4730    8.7340    2.9120 O.2    56  TYR56      -0.2718
     88  CB         6.6020    9.4120    0.4070 C.3    56  TYR56       0.0548
     89  CG         7.5000    9.4080   -0.8050 C.ar   56  TYR56      -0.0200
     90  CD1        7.2960   10.3130   -1.8430 C.ar   56  TYR56      -0.0009
     91  CD2        8.5680    8.5100   -0.9090 C.ar   56  TYR56      -0.0009
     92  CE1        8.1310   10.3330   -2.9640 C.ar   56  TYR56       0.0417
     93  CE2        9.4160    8.5230   -2.0240 C.ar   56  TYR56       0.0417
     94  CZ         9.1870    9.4390   -3.0450 C.ar   56  TYR56       0.1957
     95  OH        10.0180    9.4810   -4.1340 O.3    56  TYR56      -0.2866
     96  N          3.7440    7.8150    1.8240 N.am   57  ILE57      -0.1980
     97  CA         2.8570    8.0230    2.9610 C.3    57  ILE57       0.1595
     98  C          2.6270    6.8790    3.9160 C.2    57  ILE57       0.2287
     99  O          2.1160    7.1030    5.0030 O.2    57  ILE57      -0.2864
    100  CB         1.4710    8.5380    2.5090 C.3    57  ILE57       0.0276
    101  CG1        0.7900    7.4850    1.6360 C.3    57  ILE57       0.0022
    102  CG2        1.6220    9.8750    1.7880 C.3    57  ILE57       0.0022
    103  CD1       -0.6290    7.8370    1.2460 C.3    57  ILE57       0.0001
    104  N          4.6070    3.5460    5.7380 N.3    59  TYR59      -0.1241
    105  CA         5.9320    2.9640    5.9900 C.3    59  TYR59       0.1605
    106  C          6.0790    2.7020    7.4890 C.2    59  TYR59       0.2264
    107  O          5.2580    3.1730    8.2870 O.2    59  TYR59      -0.2867
    108  CB         7.0040    3.9820    5.5720 C.3    59  TYR59       0.0534
    109  CG         6.7510    5.3470    6.1940 C.ar   59  TYR59      -0.0201
    110  CD1        7.1880    5.6510    7.4950 C.ar   59  TYR59      -0.0009
    111  CD2        5.9640    6.2920    5.5310 C.ar   59  TYR59      -0.0009
    112  CE1        6.8300    6.8640    8.1170 C.ar   59  TYR59       0.0417
    113  CE2        5.6080    7.4990    6.1400 C.ar   59  TYR59       0.0417
    114  CZ         6.0360    7.7790    7.4270 C.ar   59  TYR59       0.1957
    115  OH         5.6320    8.9630    8.0180 O.3    59  TYR59      -0.2866
    116  N         11.2040    8.8310    8.7850 N.3    73  ASN73      -0.1240
    117  CA         9.9920    9.2470    8.0910 C.3    73  ASN73       0.1653
    118  C          9.7180    8.4620    6.8200 C.2    73  ASN73       0.2266
    119  O          8.9350    8.9090    5.9840 O.2    73  ASN73      -0.2867
    120  CB        10.0730   10.7330    7.7350 C.3    73  ASN73       0.1155
    121  CG        11.0690   11.0130    6.6250 C.2    73  ASN73       0.2627
    122  OD1       12.1910   10.5120    6.6420 O.2    73  ASN73      -0.2716
    123  ND2       10.6630   11.8290    5.6560 N.am   73  ASN73      -0.0877
    124  N         13.2560   12.4210   -1.0620 N.3   104  GLU104     -0.1245
    125  CA        12.0940   11.9240   -1.7770 C.3   104  GLU104      0.1567
    126  C         11.8320   12.7710   -3.0290 C.2   104  GLU104      0.2260
    127  O         12.0000   13.9930   -3.0160 O.2   104  GLU104     -0.2867
    128  CB        10.8780   11.9360   -0.8580 C.3   104  GLU104      0.0388
    129  CG        11.1710   11.3770    0.5220 C.3   104  GLU104      0.1160
    130  CD         9.9130   11.1750    1.3560 C.2   104  GLU104      0.3649
    131  OE1        8.9910   12.0050    1.2600 O.co2 104  GLU104     -0.2457
    132  OE2        9.8570   10.1910    2.1170 O.co2 104  GLU104     -0.2457
    133  N          9.3440   14.2290   -4.6840 N.3   106  ASP106     -0.1225
    134  CA         8.0090   14.8030   -4.7690 C.3   106  ASP106      0.1805
    135  C          8.1420   16.2840   -5.1360 C.2   106  ASP106      0.2598
    136  O          9.2130   16.7260   -5.5270 O.2   106  ASP106     -0.2718
    137  CB         7.2540   14.6250   -3.4480 C.3   106  ASP106      0.1424
    138  CG         7.9530   15.2740   -2.2720 C.2   106  ASP106      0.3668
    139  OD1        8.9010   16.0630   -2.4860 O.co2 106  ASP106     -0.2456
    140  OD2        7.5370   14.9980   -1.1220 O.co2 106  ASP106     -0.2456
    141  N          7.0690   17.0500   -5.0000 N.am  107  GLU107     -0.1965
    142  CA         7.1040   18.4610   -5.3610 C.3   107  GLU107      0.1733
    143  C          8.0100   19.3080   -4.4780 C.2   107  GLU107      0.2616
    144  O          8.4080   20.4030   -4.8700 O.2   107  GLU107     -0.2715
    145  CB         5.6860   19.0430   -5.3390 C.3   107  GLU107      0.0429
    146  CG         4.7200   18.3310   -6.2800 C.3   107  GLU107      0.1163
    147  CD         3.3170   18.9240   -6.2510 C.2   107  GLU107      0.3649
    148  OE1        2.7050   18.9600   -5.1570 O.co2 107  GLU107     -0.2457
    149  OE2        2.8260   19.3490   -7.3230 O.co2 107  GLU107     -0.2457
    150  N          8.3570   18.8080   -3.2970 N.am  108  LEU108     -0.1977
    151  CA         9.2010   19.5890   -2.3960 C.3   108  LEU108      0.1596
    152  C         10.5850   19.0000   -2.1220 C.2   108  LEU108      0.2287
    153  O         11.3060   19.5190   -1.2720 O.2   108  LEU108     -0.2864
    154  CB         8.4800   19.7740   -1.0580 C.3   108  LEU108      0.0297
    155  CG         7.0330   20.2790   -1.1050 C.3   108  LEU108      0.0022
    156  CD1        6.4200   20.2350    0.2920 C.3   108  LEU108      0.0001
    157  CD2        7.0090   21.6950   -1.6690 C.3   108  LEU108      0.0001
    158  N         11.2020   16.5070   -0.5440 N.3   110  THR110     -0.1218
    159  CA        11.1130   16.1880    0.8730 C.3   110  THR110      0.1862
    160  C         12.2660   15.3210    1.3650 C.2   110  THR110      0.2287
    161  O         12.5050   14.2310    0.8580 O.2   110  THR110     -0.2866
    162  CB         9.7780   15.4890    1.1830 C.3   110  THR110      0.1770
    163  OG1        8.7060   16.3430    0.7690 O.3   110  THR110     -0.2211
    164  CG2        9.6450   15.2080    2.6770 C.3   110  THR110      0.0375
    165  N         10.6170   19.6970    7.1670 N.3   148  TYR148     -0.1241
    166  CA        10.5010   21.0910    6.7130 C.3   148  TYR148      0.1605
    167  C         10.8730   22.0660    7.8320 C.2   148  TYR148      0.2264
    168  O         10.5550   21.8440    9.0020 O.2   148  TYR148     -0.2867
    169  CB         9.0750   21.4000    6.2380 C.3   148  TYR148      0.0534
    170  CG         8.5180   20.4140    5.2360 C.ar  148  TYR148     -0.0201
    171  CD1        7.2800   19.8040    5.4470 C.ar  148  TYR148     -0.0009
    172  CD2        9.2360   20.0670    4.0890 C.ar  148  TYR148     -0.0009
    173  CE1        6.7740   18.8680    4.5470 C.ar  148  TYR148      0.0417
    174  CE2        8.7400   19.1300    3.1840 C.ar  148  TYR148      0.0417
    175  CZ         7.5100   18.5330    3.4210 C.ar  148  TYR148      0.1957
    176  OH         7.0370   17.5760    2.5510 O.3   148  TYR148     -0.2866
@<TRIPOS>BOND
     1   149   147   ar
     2   146   147    1
     3   146   145    1
     4   147   148   ar
     5   136   135    2
     6   142   145    1
     7   142   141    1
     8   142   143    1
     9   135   141   am
    10   135   134    1
    11   144   143    2
    12   134   133    1
    13   134   137    1
    14   143   150   am
    15    95    94    1
    16    76    77    1
    17   137   138    1
    18   150   151    1
    19    77    78    1
    20    77    80    1
    21    94    92   ar
    22    94    93   ar
    23   126   127    2
    24   126   125    1
    25    92    90   ar
    26   139   138   ar
    27    78    79    2
    28   151   152    1
    29   151   154    1
    30   138   140   ar
    31    80    81    1
    32    83    81   am
    33   152   153    2
    34    93    91   ar
    35    81    82    2
    36    90    89   ar
    37   125   124    1
    38   125   128    1
    39   157   155    1
    40    64    62   ar
    41    64    63   ar
    42   155   154    1
    43   155   156    1
    44    91    89   ar
    45   128   129    1
    46    89    88    1
    47    84    85    1
    48   158   159    1
    49    62    60   ar
    50    63    61   ar
    51    88    85    1
    52   129   130    1
    53    85    86    1
    54    52    53    1
    55    52    49    1
    56   163   162    1
    57   161   160    2
    58   159   162    1
    59   159   160    1
    60    60    59   ar
    61    61    59   ar
    62   162   164    1
    63   103   101    1
    64   131   130   ar
    65   130   132   ar
    66    51    50    2
    67   101   100    1
    68    59    58    1
    69   102   100    1
    70    96    86   am
    71    96    97    1
    72    86    87    2
    73    49    50    1
    74    49    48    1
    75    50    54   am
    76   100    97    1
    77   176   175    1
    78    47    45    1
    79    97    98    1
    80    48    39   am
    81    58    55    1
    82   174   175   ar
    83   174   172   ar
    84    54    55    1
    85   175   173   ar
    86    45    46    1
    87    45    44    2
    88    55    56    1
    89    98    99    2
    90    44    43    1
    91    39    40    2
    92    39    38    1
    93   172   170   ar
    94    41    38    1
    95    41    42    1
    96    23    21    1
    97   173   171   ar
    98    43    42    1
    99    38    37    1
   100    56    57    2
   101   170   171   ar
   102   170   169    1
   103    36    35    1
   104   111   113   ar
   105   111   109   ar
   106    37    33   am
   107   108   105    1
   108   108   109    1
   109   123   121   am
   110    21    22    1
   111    21    20    2
   112   104   105    1
   113    74    73    1
   114    75    73    1
   115    73    72    2
   116    71    72    1
   117    71    70    1
   118   119   118    2
   119   105   106    1
   120    10     8   ar
   121    10    11   ar
   122   113   114   ar
   123   109   110   ar
   124    12    11    1
   125   169   166    1
   126    70    69    1
   127    20    19    1
   128     8     6   ar
   129   121   122    2
   130   121   120    1
   131   166   165    1
   132   166   167    1
   133    11     9   ar
   134    33    32    1
   135    33    34    2
   136    35    32    1
   137   118   117    1
   138    32    31    1
   139   114   115    1
   140   114   112   ar
   141   106   107    2
   142   110   112   ar
   143   120   117    1
   144    19    18    1
   145     6     5    1
   146     6     7   ar
   147   167   168    2
   148    69    66    1
   149     9     7   ar
   150   117   116    1
   151    65    66    1
   152     5     2    1
   153    66    67    1
   154    18    17    1
   155     4     3    2
   156    13    14    1
   157    17    14    1
   158     3     2    1
   159    29    28    1
   160     2     1    1
   161    14    15    1
   162    67    68    2
   163    16    15    2
   164    30    28    1
   165    28    25    1
   166    25    26    1
   167    25    24    1
   168    26    27    2
