@<TRIPOS>MOLECULE
tmp/2ntlC00.pdb
 167 158 0 0 0
SMALL
GASTEIGER

@<TRIPOS>ATOM
      1  N          0.3390   -2.7120   15.4150 N.3     6  TYR6       -0.1241
      2  CA        -0.8140   -2.7490   14.5470 C.3     6  TYR6        0.1605
      3  C         -0.9810   -1.3680   13.9460 C.2     6  TYR6        0.2264
      4  O         -1.4040   -0.4480   14.6350 O.2     6  TYR6       -0.2867
      5  CB        -2.0720   -3.1160   15.3310 C.3     6  TYR6        0.0534
      6  CG        -3.2980   -3.1660   14.4610 C.ar    6  TYR6       -0.0201
      7  CD1       -3.4100   -4.1050   13.4330 C.ar    6  TYR6       -0.0009
      8  CD2       -4.3380   -2.2550   14.6360 C.ar    6  TYR6       -0.0009
      9  CE1       -4.5320   -4.1340   12.5980 C.ar    6  TYR6        0.0417
     10  CE2       -5.4680   -2.2750   13.8030 C.ar    6  TYR6        0.0417
     11  CZ        -5.5540   -3.2170   12.7890 C.ar    6  TYR6        0.1957
     12  OH        -6.6530   -3.2360   11.9690 O.3     6  TYR6       -0.2866
     13  N         -4.5390    0.2430    8.2090 N.3     9  ARG9       -0.1245
     14  CA        -4.3390    0.3740    6.7680 C.3     9  ARG9        0.1563
     15  C         -3.0120    1.0620    6.4500 C.2     9  ARG9        0.2260
     16  O         -2.6620    2.0820    7.0610 O.2     9  ARG9       -0.2867
     17  CB        -5.5110    1.1410    6.1570 C.3     9  ARG9        0.0307
     18  CG        -6.7180    0.2620    5.8480 C.3     9  ARG9        0.0489
     19  CD        -7.2130   -0.5280    7.0520 C.3     9  ARG9        0.2205
     20  NE        -7.6340    0.3520    8.1320 N.pl3   9  ARG9       -0.0865
     21  CZ        -8.1890   -0.0740    9.2610 C.cat   9  ARG9        0.5346
     22  NH1       -8.3840   -1.3690    9.4520 N.pl3   9  ARG9        0.1354
     23  NH2       -8.5610    0.7950   10.1930 N.pl3   9  ARG9        0.1354
     24  N         -4.3490   -3.8490    3.5710 N.3    26  VAL26      -0.1245
     25  CA        -5.4130   -3.7730    4.5480 C.3    26  VAL26       0.1561
     26  C         -4.9930   -4.6050    5.7530 C.2    26  VAL26       0.2260
     27  O         -4.6170   -5.7740    5.6200 O.2    26  VAL26      -0.2867
     28  CB        -6.7340   -4.3550    4.0060 C.3    26  VAL26       0.0252
     29  CG1       -7.7470   -4.4830    5.1460 C.3    26  VAL26       0.0019
     30  CG2       -7.2910   -3.4620    2.8920 C.3    26  VAL26       0.0019
     31  N         -6.5560   -5.4650    9.4970 N.3    28  SER28      -0.1202
     32  CA        -7.7950   -5.2560   10.2130 C.3    28  SER28       0.2020
     33  C         -8.0140   -6.2920   11.2990 C.2    28  SER28       0.2619
     34  O         -7.4620   -7.3900   11.2520 O.2    28  SER28      -0.2717
     35  CB        -8.9700   -5.2630    9.2260 C.3    28  SER28       0.2103
     36  OG       -10.1890   -4.9550    9.8690 O.3    28  SER28      -0.2182
     37  N         -8.8190   -5.9200   12.2850 N.am   29  ARG29      -0.1965
     38  CA        -9.1430   -6.7900   13.3980 C.3    29  ARG29       0.1729
     39  C        -10.6280   -7.0610   13.3460 C.2    29  ARG29       0.2617
     40  O        -11.0470   -8.2080   13.3080 O.2    29  ARG29      -0.2715
     41  CB        -8.7940   -6.1120   14.7200 C.3    29  ARG29       0.0348
     42  CG        -7.3070   -5.8860   14.9190 C.3    29  ARG29       0.0492
     43  CD        -7.0430   -4.8820   16.0240 C.3    29  ARG29       0.2205
     44  NE        -7.7220   -3.6140   15.7630 N.pl3  29  ARG29      -0.0865
     45  CZ        -7.4420   -2.4710   16.3840 C.cat  29  ARG29       0.5346
     46  NH1       -6.4880   -2.4350   17.3100 N.pl3  29  ARG29       0.1354
     47  NH2       -8.1080   -1.3600   16.0730 N.pl3  29  ARG29       0.1354
     48  N        -11.4140   -5.9900   13.3210 N.am   30  SER30      -0.1936
     49  CA       -12.8680   -6.0890   13.2930 C.3    30  SER30       0.2055
     50  C        -13.4720   -6.5210   11.9500 C.2    30  SER30       0.2643
     51  O        -14.5950   -7.0300   11.9100 O.2    30  SER30      -0.2714
     52  CB       -13.4730   -4.7560   13.7320 C.3    30  SER30       0.2130
     53  OG       -12.8710   -3.6780   13.0360 O.3    30  SER30      -0.2179
     54  N        -12.7450   -6.3140   10.8550 N.am   31  PHE31      -0.1973
     55  CA       -13.2380   -6.7090    9.5340 C.3    31  PHE31       0.1639
     56  C        -12.1400   -7.3720    8.7180 C.2    31  PHE31       0.2290
     57  O        -11.5480   -6.7620    7.8400 O.2    31  PHE31      -0.2864
     58  CB       -13.7740   -5.5020    8.7670 C.3    31  PHE31       0.0560
     59  CG       -14.9530   -4.8480    9.4160 C.ar   31  PHE31      -0.0200
     60  CD1      -14.7740   -3.8580   10.3800 C.ar   31  PHE31      -0.0042
     61  CD2      -16.2430   -5.2020    9.0520 C.ar   31  PHE31      -0.0042
     62  CE1      -15.8620   -3.2260   10.9670 C.ar   31  PHE31      -0.0003
     63  CE2      -17.3410   -4.5760    9.6340 C.ar   31  PHE31      -0.0003
     64  CZ       -17.1510   -3.5860   10.5930 C.ar   31  PHE31      -0.0000
     65  N        -12.1840   -9.5430    4.0650 N.3    34  ARG34      -0.1245
     66  CA       -12.0910   -8.7350    2.8650 C.3    34  ARG34       0.1563
     67  C        -10.9360   -9.1530    1.9710 C.2    34  ARG34       0.2260
     68  O        -10.0110   -9.8470    2.4000 O.2    34  ARG34      -0.2867
     69  CB       -11.9520   -7.2600    3.2520 C.3    34  ARG34       0.0307
     70  CG       -13.2080   -6.6790    3.8780 C.3    34  ARG34       0.0489
     71  CD       -13.0180   -5.2220    4.2460 C.3    34  ARG34       0.2205
     72  NE       -12.1090   -5.0740    5.3740 N.pl3  34  ARG34      -0.0865
     73  CZ       -11.6490   -3.9100    5.8160 C.cat  34  ARG34       0.5346
     74  NH1      -12.0120   -2.7840    5.2170 N.pl3  34  ARG34       0.1354
     75  NH2      -10.8380   -3.8730    6.8650 N.pl3  34  ARG34       0.1354
     76  N        -20.5660   -0.9950    8.3220 N.3    58  ASN58      -0.1240
     77  CA       -19.5160    0.0040    8.3820 C.3    58  ASN58       0.1653
     78  C        -19.2630    0.5480    6.9830 C.2    58  ASN58       0.2266
     79  O        -18.9200   -0.1910    6.0660 O.2    58  ASN58      -0.2867
     80  CB       -18.2460   -0.6170    8.9320 C.3    58  ASN58       0.1155
     81  CG       -17.1850    0.4010    9.1730 C.2    58  ASN58       0.2627
     82  OD1      -16.8360    1.1670    8.2740 O.2    58  ASN58      -0.2716
     83  ND2      -16.6580    0.4280   10.3920 N.am   58  ASN58      -0.0877
     84  N        -16.8010    2.3410    5.9080 N.3    60  TYR60      -0.1227
     85  CA       -15.4160    2.6250    5.5740 C.3    60  TYR60       0.1736
     86  C        -14.6270    1.3900    5.2070 C.2    60  TYR60       0.2595
     87  O        -13.4080    1.4620    5.0350 O.2    60  TYR60      -0.2718
     88  CB       -14.7160    3.3220    6.7430 C.3    60  TYR60       0.0548
     89  CG       -15.3760    4.5890    7.2210 C.ar   60  TYR60      -0.0200
     90  CD1      -15.8290    4.7060    8.5380 C.ar   60  TYR60      -0.0009
     91  CD2      -15.5280    5.6830    6.3790 C.ar   60  TYR60      -0.0009
     92  CE1      -16.4160    5.8920    9.0050 C.ar   60  TYR60       0.0417
     93  CE2      -16.1140    6.8680    6.8350 C.ar   60  TYR60       0.0417
     94  CZ       -16.5540    6.9630    8.1480 C.ar   60  TYR60       0.1957
     95  OH       -17.1340    8.1200    8.6020 O.3    60  TYR60      -0.2866
     96  N        -15.2980    0.2560    5.0670 N.am   61  ILE61      -0.1980
     97  CA       -14.5680   -0.9680    4.7590 C.3    61  ILE61       0.1595
     98  C        -14.4960   -1.3740    3.2980 C.2    61  ILE61       0.2287
     99  O        -13.7330   -2.2710    2.9580 O.2    61  ILE61      -0.2864
    100  CB       -15.1220   -2.1500    5.5420 C.3    61  ILE61       0.0276
    101  CG1      -16.5590   -2.4230    5.0960 C.3    61  ILE61       0.0022
    102  CG2      -15.0530   -1.8560    7.0310 C.3    61  ILE61       0.0022
    103  CD1      -17.0960   -3.7460    5.5690 C.3    61  ILE61       0.0001
    104  N        -13.9950    0.2020   -0.6550 N.3    63  TYR63      -0.1241
    105  CA       -13.6270    1.3980   -1.4160 C.3    63  TYR63       0.1605
    106  C        -12.5090    1.0540   -2.3830 C.2    63  TYR63       0.2264
    107  O        -11.8400    0.0270   -2.2260 O.2    63  TYR63      -0.2867
    108  CB       -13.1150    2.4700   -0.4430 C.3    63  TYR63       0.0534
    109  CG       -12.0130    1.9240    0.4480 C.ar   63  TYR63      -0.0201
    110  CD1      -10.6850    1.8610   -0.0020 C.ar   63  TYR63      -0.0009
    111  CD2      -12.3200    1.3330    1.6790 C.ar   63  TYR63      -0.0009
    112  CE1       -9.6950    1.2060    0.7570 C.ar   63  TYR63       0.0417
    113  CE2      -11.3450    0.6720    2.4360 C.ar   63  TYR63       0.0417
    114  CZ       -10.0440    0.6100    1.9690 C.ar   63  TYR63       0.1957
    115  OH        -9.1090   -0.0780    2.6920 O.3    63  TYR63      -0.2866
    116  N         -6.7300    4.8350    1.6720 N.3    77  ASN77      -0.1240
    117  CA        -7.4470    3.8670    2.4950 C.3    77  ASN77       0.1653
    118  C         -8.9680    4.0500    2.4830 C.2    77  ASN77       0.2266
    119  O         -9.6470    3.5210    3.3620 O.2    77  ASN77      -0.2867
    120  CB        -6.9620    3.9820    3.9380 C.3    77  ASN77       0.1155
    121  CG        -7.3750    5.3020    4.5850 C.2    77  ASN77       0.2627
    122  OD1       -7.1260    6.3840    4.0370 O.2    77  ASN77      -0.2716
    123  ND2       -8.0100    5.2180    5.7520 N.am   77  ASN77      -0.0877
    124  N        -12.1420    9.8040    9.2960 N.3   108  GLU108     -0.1245
    125  CA       -13.3370    8.9760    9.3500 C.3   108  GLU108      0.1567
    126  C        -14.0020    9.0640   10.7170 C.2   108  GLU108      0.2260
    127  O        -13.3360    9.0910   11.7510 O.2   108  GLU108     -0.2867
    128  CB       -12.9930    7.5320    8.9920 C.3   108  GLU108      0.0388
    129  CG       -12.1850    7.4270    7.7100 C.3   108  GLU108      0.1160
    130  CD       -12.1440    6.0290    7.1250 C.2   108  GLU108      0.3649
    131  OE1      -11.9540    5.0590    7.8880 O.co2 108  GLU108     -0.2457
    132  OE2      -12.2850    5.9040    5.8910 O.co2 108  GLU108     -0.2457
    133  N        -15.3530    7.1890   12.9920 N.3   110  ASP110     -0.1239
    134  CA       -15.5490    5.9320   13.7070 C.3   110  ASP110      0.1674
    135  C        -15.0910    6.1190   15.1520 C.2   110  ASP110      0.2266
    136  O        -14.7280    7.2260   15.5680 O.2   110  ASP110     -0.2867
    137  CB       -14.7660    4.7850   13.0590 C.3   110  ASP110      0.1410
    138  CG       -13.2790    5.0640   12.9600 C.2   110  ASP110      0.3668
    139  OD1      -12.7430    5.8550   13.7630 O.co2 110  ASP110     -0.2456
    140  OD2      -12.6390    4.4720   12.0740 O.co2 110  ASP110     -0.2456
    141  N        -12.4680    5.5020   16.4070 N.3   112  LEU112     -0.1245
    142  CA       -11.0490    5.8230   16.4920 C.3   112  LEU112      0.1561
    143  C        -10.6680    7.0880   15.7350 C.2   112  LEU112      0.2260
    144  O         -9.4970    7.4700   15.7440 O.2   112  LEU112     -0.2867
    145  CB       -10.2200    4.6730   15.9340 C.3   112  LEU112      0.0270
    146  CG       -10.3340    3.3140   16.6110 C.3   112  LEU112      0.0019
    147  CD1       -9.3620    2.3400   15.9550 C.3   112  LEU112      0.0001
    148  CD2      -10.0130    3.4640   18.0940 C.3   112  LEU112      0.0001
    149  N        -10.4060    7.3430   12.7540 N.3   114  THR114     -0.1218
    150  CA        -9.4600    6.8250   11.7940 C.3   114  THR114      0.1862
    151  C         -9.1570    7.8480   10.7080 C.2   114  THR114      0.2287
    152  O        -10.0610    8.3500   10.0360 O.2   114  THR114     -0.2866
    153  CB        -9.9850    5.5380   11.1440 C.3   114  THR114      0.1770
    154  OG1      -10.1240    4.5340   12.1520 O.3   114  THR114     -0.2211
    155  CG2       -9.0130    5.0340   10.0760 C.3   114  THR114      0.0375
    156  N         -2.8200    4.1090   11.8070 N.3   152  TYR152     -0.1241
    157  CA        -2.5260    4.0390   13.2330 C.3   152  TYR152      0.1605
    158  C         -1.0410    3.9250   13.4610 C.2   152  TYR152      0.2264
    159  O         -0.3470    3.2270   12.7170 O.2   152  TYR152     -0.2867
    160  CB        -3.2080    2.8310   13.8610 C.3   152  TYR152      0.0534
    161  CG        -4.6780    2.7340   13.5410 C.ar  152  TYR152     -0.0201
    162  CD1       -5.2100    1.5740   12.9700 C.ar  152  TYR152     -0.0009
    163  CD2       -5.5330    3.8060   13.7820 C.ar  152  TYR152     -0.0009
    164  CE1       -6.5590    1.4880   12.6460 C.ar  152  TYR152      0.0417
    165  CE2       -6.8880    3.7300   13.4590 C.ar  152  TYR152      0.0417
    166  CZ        -7.3920    2.5700   12.8930 C.ar  152  TYR152      0.1957
    167  OH        -8.7250    2.4940   12.5780 O.3   152  TYR152     -0.2866
@<TRIPOS>BOND
     1   106   107    2
     2   106   105    1
     3   105   104    1
     4   105   108    1
     5   108   109    1
     6   110   109   ar
     7   110   112   ar
     8   109   111   ar
     9   112   114   ar
    10   116   117    1
    11   111   113   ar
    12   114   113   ar
    13   114   115    1
    14    67    68    2
    15    67    66    1
    16   118   117    1
    17   118   119    2
    18   117   120    1
    19    66    69    1
    20    66    65    1
    21    30    28    1
    22    99    98    2
    23    69    70    1
    24    98    97    1
    25    24    25    1
    26    70    71    1
    27   120   121    1
    28    28    25    1
    29    28    29    1
    30   122   121    2
    31    71    72    1
    32    25    26    1
    33   121   123   am
    34    97    96    1
    35    97   100    1
    36    87    86    2
    37    96    86   am
    38   101   100    1
    39   101   103    1
    40    86    85    1
    41    74    73    1
    42    72    73    2
    43   100   102    1
    44    85    84    1
    45    85    88    1
    46    27    26    2
    47    73    75    1
    48    18    17    1
    49    18    19    1
    50   132   130   ar
    51    79    78    2
    52    17    14    1
    53    91    93   ar
    54    91    89   ar
    55    15    14    1
    56    15    16    2
    57    88    89    1
    58    14    13    1
    59    93    94   ar
    60    78    77    1
    61    19    20    1
    62   130   129    1
    63   130   131   ar
    64    89    90   ar
    65   129   128    1
    66    57    56    2
    67    20    21    2
    68    94    95    1
    69    94    92   ar
    70    82    81    2
    71    76    77    1
    72    77    80    1
    73    90    92   ar
    74    56    55    1
    75    58    59    1
    76    58    55    1
    77    80    81    1
    78   128   125    1
    79    61    59   ar
    80    61    63   ar
    81    81    83   am
    82    35    36    1
    83    35    32    1
    84    21    22    1
    85    21    23    1
    86   124   125    1
    87   125   126    1
    88    59    60   ar
    89    31    32    1
    90    55    54    1
    91    63    64   ar
    92   152   151    2
    93   155   153    1
    94    32    33    1
    95    60    62   ar
    96    64    62   ar
    97   151   150    1
    98   126   127    2
    99    54    50   am
   100   153   150    1
   101   153   154    1
   102    34    33    2
   103    33    37   am
   104   150   149    1
   105   156   157    1
   106    51    50    2
   107    50    49    1
   108    12    11    1
   109   140   138   ar
   110    37    38    1
   111   167   166    1
   112     9    11   ar
   113     9     7   ar
   114   164   166   ar
   115   164   162   ar
   116   159   158    2
   117    11    10   ar
   118   166   165   ar
   119   138   137    1
   120   138   139   ar
   121   162   161   ar
   122   133   134    1
   123    53    52    1
   124   137   134    1
   125   157   158    1
   126   157   160    1
   127    49    48    1
   128    49    52    1
   129    40    39    2
   130    48    39   am
   131    39    38    1
   132    38    41    1
   133     7     6   ar
   134   165   163   ar
   135   161   163   ar
   136   161   160    1
   137   134   135    1
   138    10     8   ar
   139     3     2    1
   140     3     4    2
   141     6     8   ar
   142     6     5    1
   143     2     5    1
   144     2     1    1
   145    41    42    1
   146    42    43    1
   147   135   136    2
   148   143   144    2
   149   143   142    1
   150    44    43    1
   151    44    45    2
   152   145   142    1
   153   145   146    1
   154   147   146    1
   155    47    45    1
   156    45    46    1
   157   141   142    1
   158   146   148    1
