@<TRIPOS>MOLECULE
tmp/2ntqA00.pdb
 236 227 0 0 0
SMALL
GASTEIGER

@<TRIPOS>ATOM
      1  N         24.8840   -2.5080  -12.1510 N.3    84  GLY84      -0.1210
      2  CA        24.4410   -1.8180  -10.9440 C.3    84  GLY84       0.1956
      3  C         23.6700   -2.7780  -10.0600 C.2    84  GLY84       0.2613
      4  O         23.3150   -3.8670  -10.4910 O.2    84  GLY84      -0.2717
      5  N         23.4040   -2.3720   -8.8230 N.am   85  THR85      -0.1938
      6  CA        22.7600   -3.2600   -7.8510 C.3    85  THR85       0.2028
      7  C         21.3590   -3.7180   -8.2770 C.2    85  THR85       0.2642
      8  O         21.0890   -4.9260   -8.3440 O.2    85  THR85      -0.2714
      9  CB        22.7420   -2.6250   -6.4540 C.3    85  THR85       0.1808
     10  OG1       24.0940   -2.4480   -6.0190 O.3    85  THR85      -0.2208
     11  CG2       22.0130   -3.5140   -5.4530 C.3    85  THR85       0.0379
     12  N         20.4830   -2.7610   -8.5720 N.am   86  ALA86      -0.1977
     13  CA        19.1500   -3.0690   -9.0820 C.3    86  ALA86       0.1597
     14  C         19.2470   -3.9610  -10.3180 C.2    86  ALA86       0.2287
     15  O         18.5670   -4.9960  -10.4050 O.2    86  ALA86      -0.2864
     16  CB        18.3710   -1.7780   -9.3940 C.3    86  ALA86       0.0319
     17  N         31.1430  -14.5350   -5.0930 N.3   111  PHE111     -0.1241
     18  CA        31.7540  -13.5320   -4.2230 C.3   111  PHE111      0.1605
     19  C         33.0880  -13.9940   -3.6010 C.2   111  PHE111      0.2264
     20  O         34.0760  -13.2660   -3.6910 O.2   111  PHE111     -0.2867
     21  CB        30.7630  -13.0450   -3.1540 C.3   111  PHE111      0.0534
     22  CG        31.3640  -12.0950   -2.1630 C.ar  111  PHE111     -0.0203
     23  CD1       31.4100  -10.7340   -2.4320 C.ar  111  PHE111     -0.0042
     24  CD2       31.8930  -12.5640   -0.9610 C.ar  111  PHE111     -0.0042
     25  CE1       31.9770   -9.8440   -1.5230 C.ar  111  PHE111     -0.0003
     26  CE2       32.4640  -11.6920   -0.0410 C.ar  111  PHE111     -0.0003
     27  CZ        32.5110  -10.3210   -0.3250 C.ar  111  PHE111     -0.0000
     28  N         34.8920   -4.6580   -7.7570 N.3   126  LYS126     -0.1245
     29  CA        34.7400   -3.9010   -6.5140 C.3   126  LYS126      0.1561
     30  C         33.2680   -3.7690   -6.1090 C.2   126  LYS126      0.2260
     31  O         32.9390   -3.7840   -4.9230 O.2   126  LYS126     -0.2867
     32  CB        35.3940   -2.5180   -6.6320 C.3   126  LYS126      0.0271
     33  CG        36.9250   -2.5540   -6.6290 C.3   126  LYS126      0.0035
     34  CD        37.5220   -1.1540   -6.5790 C.3   126  LYS126      0.0206
     35  CE        39.0430   -1.2140   -6.5940 C.3   126  LYS126      0.1093
     36  NZ        39.6660    0.1240   -6.7990 N.3   126  LYS126     -0.1314
     37  N         30.4540   -5.4940   -5.5730 N.3   128  THR128     -0.1203
     38  CA        30.1960   -6.9190   -5.3480 C.3   128  THR128      0.1994
     39  C         28.7530   -7.2770   -4.9790 C.2   128  THR128      0.2617
     40  O         28.4450   -8.4520   -4.7400 O.2   128  THR128     -0.2717
     41  CB        31.1500   -7.4850   -4.2750 C.3   128  THR128      0.1784
     42  OG1       31.1770   -6.5970   -3.1490 O.3   128  THR128     -0.2211
     43  CG2       32.5640   -7.6440   -4.8420 C.3   128  THR128      0.0376
     44  N         27.8630   -6.2890   -4.9230 N.am  129  GLN129     -0.1979
     45  CA        26.4530   -6.6220   -4.7070 C.3   129  GLN129      0.1601
     46  C         25.9420   -7.4840   -5.8640 C.2   129  GLN129      0.2287
     47  O         26.2970   -7.2630   -7.0250 O.2   129  GLN129     -0.2864
     48  CB        25.5650   -5.3970   -4.4260 C.3   129  GLN129      0.0394
     49  CG        25.8570   -4.1270   -5.1660 C.3   129  GLN129      0.0908
     50  CD        27.1190   -3.4000   -4.7170 C.2   129  GLN129      0.2608
     51  OE1       28.1340   -3.5390   -5.3500 O.2   129  GLN129     -0.2717
     52  NE2       27.0420   -2.6050   -3.6480 N.am  129  GLN129     -0.0878
     53  N         14.5910   -9.0890   -6.4500 N.3   134  TYR134     -0.1241
     54  CA        14.3430   -7.6600   -6.3030 C.3   134  TYR134      0.1605
     55  C         12.8500   -7.4230   -6.4860 C.2   134  TYR134      0.2264
     56  O         12.2920   -7.7160   -7.5430 O.2   134  TYR134     -0.2867
     57  CB        15.1770   -6.8900   -7.3380 C.3   134  TYR134      0.0534
     58  CG        14.9760   -5.3790   -7.4210 C.ar  134  TYR134     -0.0201
     59  CD1       14.5800   -4.6250   -6.3170 C.ar  134  TYR134     -0.0009
     60  CD2       15.2320   -4.7060   -8.6180 C.ar  134  TYR134     -0.0009
     61  CE1       14.4200   -3.2280   -6.4160 C.ar  134  TYR134      0.0417
     62  CE2       15.0830   -3.3270   -8.7230 C.ar  134  TYR134      0.0417
     63  CZ        14.6740   -2.5970   -7.6320 C.ar  134  TYR134      0.1957
     64  OH        14.5360   -1.2300   -7.7770 O.3   134  TYR134     -0.2866
     65  N          9.3090   -0.9200   -6.6960 N.3   137  LYS137     -0.1245
     66  CA         8.1710   -0.0670   -6.2840 C.3   137  LYS137      0.1561
     67  C          6.8520   -0.4420   -6.9700 C.2   137  LYS137      0.2260
     68  O          5.7670   -0.1340   -6.4590 O.2   137  LYS137     -0.2867
     69  CB         8.4720    1.4250   -6.4990 C.3   137  LYS137      0.0271
     70  CG         9.9310    1.8100   -6.3350 C.3   137  LYS137      0.0035
     71  CD        10.1260    3.0340   -5.4550 C.3   137  LYS137      0.0206
     72  CE        10.0680    2.6470   -3.9790 C.3   137  LYS137      0.1093
     73  NZ        10.9940    3.4460   -3.1350 N.3   137  LYS137     -0.1314
     74  N         26.3500  -10.6840   -0.9380 N.3   153  GLN153     -0.1231
     75  CA        26.0050   -9.2810   -0.6900 C.3   153  GLN153      0.1698
     76  C         24.6970   -8.9090   -1.3930 C.2   153  GLN153      0.2592
     77  O         24.5590   -9.1260   -2.5990 O.2   153  GLN153     -0.2718
     78  CB        27.1460   -8.3630   -1.1440 C.3   153  GLN153      0.0381
     79  CG        26.9480   -6.8860   -0.7860 C.3   153  GLN153      0.0905
     80  CD        28.2060   -6.0540   -0.9890 C.2   153  GLN153      0.2608
     81  OE1       29.2440   -6.5700   -1.4020 O.2   153  GLN153     -0.2717
     82  NE2       28.1210   -4.7580   -0.6770 N.am  153  GLN153     -0.0878
     83  N         23.7440   -8.3580   -0.6310 N.am  154  ASP154     -0.1974
     84  CA        22.4830   -7.8100   -1.1850 C.3   154  ASP154      0.1709
     85  C         21.5510   -8.8690   -1.8010 C.2   154  ASP154      0.2293
     86  O         20.8910   -8.6180   -2.8180 O.2   154  ASP154     -0.2864
     87  CB        22.7600   -6.6950   -2.2200 C.3   154  ASP154      0.1436
     88  CG        23.2290   -5.3880   -1.5850 C.2   154  ASP154      0.3671
     89  OD1       23.6120   -5.3880   -0.3950 O.co2 154  ASP154     -0.2456
     90  OD2       23.2170   -4.3540   -2.2870 O.co2 154  ASP154     -0.2456
     91  N         16.4120   -7.6300   -2.2360 N.3   157  TYR157     -0.1241
     92  CA        16.1690   -6.1920   -2.3540 C.3   157  TYR157      0.1605
     93  C         14.6510   -6.0000   -2.3440 C.2   157  TYR157      0.2264
     94  O         13.9760   -6.3060   -3.3270 O.2   157  TYR157     -0.2867
     95  CB        16.7630   -5.7010   -3.6820 C.3   157  TYR157      0.0534
     96  CG        16.9100   -4.1930   -3.8730 C.ar  157  TYR157     -0.0201
     97  CD1       16.3730   -3.2770   -2.9620 C.ar  157  TYR157     -0.0009
     98  CD2       17.5870   -3.6870   -4.9930 C.ar  157  TYR157     -0.0009
     99  CE1       16.5130   -1.8930   -3.1580 C.ar  157  TYR157      0.0417
    100  CE2       17.7130   -2.3100   -5.2020 C.ar  157  TYR157      0.0417
    101  CZ        17.1810   -1.4260   -4.2830 C.ar  157  TYR157      0.1957
    102  OH        17.3200   -0.0650   -4.4820 O.3   157  TYR157     -0.2866
    103  N         11.7320   -3.3020   -2.1570 N.3   159  SER159     -0.1217
    104  CA        11.4100   -1.8710   -2.2750 C.3   159  SER159      0.1889
    105  C          9.9050   -1.6240   -2.4430 C.2   159  SER159      0.2288
    106  O          9.1800   -2.5010   -2.8860 O.2   159  SER159     -0.2866
    107  CB        12.1740   -1.2610   -3.4550 C.3   159  SER159      0.2089
    108  OG        12.0070    0.1470   -3.5090 O.3   159  SER159     -0.2183
    109  N         26.5760   -9.3910    3.5240 N.3   174  VAL174     -0.1231
    110  CA        26.4030   -7.9640    3.7770 C.3   174  VAL174      0.1692
    111  C         25.0620   -7.4640    3.2550 C.2   174  VAL174      0.2592
    112  O         24.7780   -7.5540    2.0530 O.2   174  VAL174     -0.2718
    113  CB        27.5530   -7.1260    3.1480 C.3   174  VAL174      0.0266
    114  CG1       27.2160   -5.6270    3.1830 C.3   174  VAL174      0.0020
    115  CG2       28.8760   -7.3890    3.8720 C.3   174  VAL174      0.0020
    116  N         24.2550   -6.9250    4.1730 N.am  175  ASP175     -0.1974
    117  CA        22.9780   -6.2900    3.8470 C.3   175  ASP175      0.1709
    118  C         22.0850   -7.2170    3.0190 C.2   175  ASP175      0.2293
    119  O         21.5350   -6.8000    1.9970 O.2   175  ASP175     -0.2864
    120  CB        23.2170   -4.9510    3.1030 C.3   175  ASP175      0.1436
    121  CG        24.0240   -3.9430    3.9260 C.2   175  ASP175      0.3671
    122  OD1       24.2740   -4.1830    5.1240 O.co2 175  ASP175     -0.2456
    123  OD2       24.3980   -2.8870    3.3610 O.co2 175  ASP175     -0.2456
    124  N         17.5420   -5.9110    2.2800 N.3   178  PHE178     -0.1241
    125  CA        17.7140   -4.4490    2.2940 C.3   178  PHE178      0.1605
    126  C         16.6680   -3.7440    1.4420 C.2   178  PHE178      0.2264
    127  O         16.0960   -4.3450    0.5310 O.2   178  PHE178     -0.2867
    128  CB        19.1340   -4.0550    1.8500 C.3   178  PHE178      0.0534
    129  CG        19.3750   -4.1850    0.3610 C.ar  178  PHE178     -0.0203
    130  CD1       19.4720   -5.4400   -0.2360 C.ar  178  PHE178     -0.0042
    131  CD2       19.5220   -3.0510   -0.4370 C.ar  178  PHE178     -0.0042
    132  CE1       19.6960   -5.5640   -1.6050 C.ar  178  PHE178     -0.0003
    133  CE2       19.7570   -3.1670   -1.8160 C.ar  178  PHE178     -0.0003
    134  CZ        19.8470   -4.4300   -2.3930 C.ar  178  PHE178     -0.0000
    135  N         32.8060  -15.7100    5.7230 N.3   195  ARG195     -0.1245
    136  CA        33.6310  -14.7570    4.9740 C.3   195  ARG195      0.1563
    137  C         35.1110  -15.1130    5.0960 C.2   195  ARG195      0.2260
    138  O         35.7430  -14.7950    6.1110 O.2   195  ARG195     -0.2867
    139  CB        33.4350  -13.3300    5.5150 C.3   195  ARG195      0.0307
    140  CG        32.0940  -12.6670    5.2090 C.3   195  ARG195      0.0489
    141  CD        31.9740  -12.2070    3.7550 C.3   195  ARG195      0.2205
    142  NE        32.9460  -11.1900    3.3440 N.pl3 195  ARG195     -0.0865
    143  CZ        32.8060   -9.8780    3.5390 C.cat 195  ARG195      0.5346
    144  NH1       31.7530   -9.3990    4.1930 N.pl3 195  ARG195      0.1354
    145  NH2       33.7360   -9.0330    3.0880 N.pl3 195  ARG195      0.1354
    146  N         25.8320   -8.1410    7.7940 N.3   206  TYR206     -0.1241
    147  CA        24.6390   -7.5400    8.4060 C.3   206  TYR206      0.1605
    148  C         23.4200   -8.1980    7.7790 C.2   206  TYR206      0.2264
    149  O         23.2970   -8.2390    6.5580 O.2   206  TYR206     -0.2867
    150  CB        24.6070   -6.0150    8.1680 C.3   206  TYR206      0.0534
    151  CG        25.9550   -5.3510    8.3840 C.ar  206  TYR206     -0.0201
    152  CD1       26.8680   -5.2400    7.3340 C.ar  206  TYR206     -0.0009
    153  CD2       26.3400   -4.8890    9.6490 C.ar  206  TYR206     -0.0009
    154  CE1       28.1210   -4.6600    7.5210 C.ar  206  TYR206      0.0417
    155  CE2       27.6060   -4.3000    9.8480 C.ar  206  TYR206      0.0417
    156  CZ        28.4820   -4.1960    8.7700 C.ar  206  TYR206      0.1957
    157  OH        29.7320   -3.6310    8.9190 O.3   206  TYR206     -0.2866
    158  N         19.5190   -4.1380    6.0280 N.3   209  ALA209     -0.1245
    159  CA        19.8700   -2.7320    5.8230 C.3   209  ALA209      0.1562
    160  C         18.6200   -2.0200    5.3200 C.2   209  ALA209      0.2260
    161  O         18.4760   -1.7640    4.1180 O.2   209  ALA209     -0.2867
    162  CB        21.0260   -2.5880    4.8440 C.3   209  ALA209      0.0290
    163  N         21.9390   -2.4600    9.9060 N.3   243  ARG243     -0.1245
    164  CA        22.5430   -1.1270    9.8940 C.3   243  ARG243      0.1563
    165  C         21.6650   -0.2270    9.0200 C.2   243  ARG243      0.2260
    166  O         20.9850   -0.7180    8.1190 O.2   243  ARG243     -0.2867
    167  CB        24.0010   -1.1780    9.4280 C.3   243  ARG243      0.0307
    168  CG        24.2330   -1.8020    8.0530 C.3   243  ARG243      0.0489
    169  CD        25.7130   -1.7590    7.6980 C.3   243  ARG243      0.2205
    170  NE        25.9420   -2.1360    6.3080 N.pl3 243  ARG243     -0.0865
    171  CZ        27.0730   -1.9150    5.6460 C.cat 243  ARG243      0.5346
    172  NH1       28.0970   -1.3290    6.2550 N.pl3 243  ARG243      0.1354
    173  NH2       27.1830   -2.2960    4.3780 N.pl3 243  ARG243      0.1354
    174  N         20.4770    1.8960    6.1970 N.3   245  TRP245     -0.1227
    175  CA        20.7900    2.2990    4.8240 C.3   245  TRP245      0.1737
    176  C         20.0330    3.5690    4.4410 C.2   245  TRP245      0.2595
    177  O         18.7980    3.5930    4.4270 O.2   245  TRP245     -0.2718
    178  CB        20.5030    1.1670    3.8280 C.3   245  TRP245      0.0564
    179  CG        20.9050    1.4970    2.4090 C.ar  245  TRP245      0.0003
    180  CD1       22.0190    2.1850    2.0090 C.ar  245  TRP245      0.0946
    181  CD2       20.2000    1.1430    1.2100 C.ar  245  TRP245      0.0152
    182  NE1       22.0430    2.2900    0.6380 N.ar  245  TRP245     -0.2442
    183  CE2       20.9410    1.6600    0.1220 C.ar  245  TRP245      0.0810
    184  CE3       19.0100    0.4450    0.9490 C.ar  245  TRP245      0.0012
    185  CZ2       20.5350    1.4940   -1.2120 C.ar  245  TRP245      0.0191
    186  CZ3       18.6030    0.2840   -0.3740 C.ar  245  TRP245      0.0001
    187  CH2       19.3640    0.8080   -1.4380 C.ar  245  TRP245      0.0015
    188  N         20.7910    4.6250    4.1680 N.am  246  HIS246     -0.1962
    189  CA        20.2380    5.8820    3.6700 C.3   246  HIS246      0.1772
    190  C         20.6940    6.0160    2.2260 C.2   246  HIS246      0.2462
    191  O         21.7940    6.5120    1.9700 O.2   246  HIS246     -0.2730
    192  CB        20.7470    7.0590    4.5120 C.3   246  HIS246      0.0785
    193  CG        20.2030    7.0840    5.9070 C.ar  246  HIS246      0.0821
    194  ND1       19.3930    8.0990    6.3710 N.ar  246  HIS246     -0.2267
    195  CD2       20.3400    6.2110    6.9350 C.ar  246  HIS246      0.1154
    196  CE1       19.0600    7.8520    7.6260 C.ar  246  HIS246      0.1986
    197  NE2       19.6210    6.7120    7.9920 N.ar  246  HIS246     -0.2212
    198  N         19.8660    5.5390    1.2730 N.am  247  PRO247     -0.2716
    199  CA        20.3130    5.3910   -0.1070 C.3   247  PRO247      0.1536
    200  C         20.6750    6.7180   -0.7490 C.2   247  PRO247      0.2599
    201  O         20.0300    7.7380   -0.4800 O.2   247  PRO247     -0.2715
    202  CB        19.0870    4.8000   -0.8160 C.3   247  PRO247      0.0310
    203  CG        18.2710    4.1840    0.2640 C.3   247  PRO247      0.0237
    204  CD        18.4650    5.1090    1.4310 C.3   247  PRO247      0.0939
    205  N         21.7190    6.6940   -1.5760 N.am  248  THR248     -0.1951
    206  CA        22.0210    7.8330   -2.4370 C.3   248  THR248      0.1897
    207  C         20.7870    8.0710   -3.2970 C.2   248  THR248      0.2313
    208  O         20.2870    7.1460   -3.9590 O.2   248  THR248     -0.2863
    209  CB        23.2540    7.5670   -3.3080 C.3   248  THR248      0.1794
    210  OG1       24.3630    7.2440   -2.4610 O.3   248  THR248     -0.2208
    211  CG2       23.6020    8.7910   -4.1510 C.3   248  THR248      0.0378
    212  N         22.6090   14.9570   -5.2460 N.3   255  ARG255     -0.1245
    213  CA        22.4620   13.5200   -5.0720 C.3   255  ARG255      0.1563
    214  C         23.3090   13.0060   -3.9000 C.2   255  ARG255      0.2260
    215  O         24.5450   13.0420   -3.9500 O.2   255  ARG255     -0.2867
    216  CB        22.8100   12.8110   -6.3820 C.3   255  ARG255      0.0307
    217  CG        22.5640   11.3320   -6.3420 C.3   255  ARG255      0.0489
    218  CD        22.7220   10.7020   -7.7020 C.3   255  ARG255      0.2205
    219  NE        22.7190    9.2450   -7.5940 N.pl3 255  ARG255     -0.0865
    220  CZ        21.6290    8.4880   -7.4940 C.cat 255  ARG255      0.5346
    221  NH1       20.4120    9.0300   -7.4960 N.pl3 255  ARG255      0.1354
    222  NH2       21.7600    7.1710   -7.3910 N.pl3 255  ARG255      0.1354
    223  N         26.0960    2.8130    9.8010 N.3   282  MET282     -0.1230
    224  CA        26.4210    2.7610    8.3790 C.3   282  MET282      0.1702
    225  C         26.7090    4.1690    7.8910 C.2   282  MET282      0.2593
    226  O         26.1190    5.1270    8.3850 O.2   282  MET282     -0.2718
    227  CB        25.2580    2.1640    7.5820 C.3   282  MET282      0.0401
    228  CG        25.5820    1.8470    6.1190 C.3   282  MET282      0.0596
    229  SD        24.2100    1.0200    5.2870 S.3   282  MET282     -0.1393
    230  CE        24.9640    0.6010    3.7140 C.3   282  MET282      0.0692
    231  N         27.6080    4.2830    6.9180 N.am  283  SER283     -0.1952
    232  CA        28.0010    5.5860    6.3940 C.3   283  SER283      0.1924
    233  C         27.4300    5.8490    5.0060 C.2   283  SER283      0.2314
    234  O         27.1330    4.9220    4.2470 O.2   283  SER283     -0.2863
    235  CB        29.5290    5.7420    6.3950 C.3   283  SER283      0.2116
    236  OG        30.1440    4.9910    5.3600 O.3   283  SER283     -0.2180
@<TRIPOS>BOND
     1     1     2    1
     2     2     3    1
     3     4     3    2
     4    15    14    2
     5    14    13    1
     6     3     5   am
     7    16    13    1
     8    13    12    1
     9     5     6    1
    10    62    60   ar
    11    62    63   ar
    12    60    58   ar
    13    12     7   am
    14     8     7    2
    15     7     6    1
    16     6     9    1
    17    64    63    1
    18    28    29    1
    19   218   219    1
    20   218   217    1
    21    63    61   ar
    22   219   220    2
    23    56    55    2
    24   221   220    1
    25   220   222    1
    26    58    57    1
    27    58    59   ar
    28    57    54    1
    29    47    46    2
    30    67    68    2
    31    67    66    1
    32    36    35    1
    33    65    66    1
    34    32    33    1
    35    32    29    1
    36    33    34    1
    37    35    34    1
    38    29    30    1
    39    69    70    1
    40    69    66    1
    41    55    54    1
    42     9    10    1
    43     9    11    1
    44    53    54    1
    45    61    59   ar
    46   216   217    1
    47   216   213    1
    48    70    71    1
    49    30    31    2
    50    46    45    1
    51    37    38    1
    52    71    72    1
    53    51    50    2
    54    38    39    1
    55    38    41    1
    56   212   213    1
    57   100    98   ar
    58   100   101   ar
    59    49    50    1
    60    49    48    1
    61    17    18    1
    62   213   214    1
    63    98    96   ar
    64    39    44   am
    65    39    40    2
    66    44    45    1
    67    43    41    1
    68    50    52   am
    69    45    48    1
    70   102   101    1
    71   101    99   ar
    72    41    42    1
    73    18    19    1
    74    18    21    1
    75   211   209    1
    76    72    73    1
    77   208   207    2
    78   215   214    2
    79    96    95    1
    80    96    97   ar
    81    20    19    2
    82    95    92    1
    83   108   107    1
    84   107   104    1
    85    94    93    2
    86   209   210    1
    87   209   206    1
    88   207   206    1
    89    99    97   ar
    90    21    22    1
    91   106   105    2
    92    86    85    2
    93    77    76    2
    94   105   104    1
    95   206   205    1
    96    23    22   ar
    97    23    25   ar
    98   134   133   ar
    99   134   132   ar
   100    92    93    1
   101    92    91    1
   102    90    88   ar
   103   104   103    1
   104    87    88    1
   105    87    84    1
   106    22    24   ar
   107   133   131   ar
   108    85    84    1
   109   132   130   ar
   110    88    89   ar
   111   205   200   am
   112    25    27   ar
   113   187   185   ar
   114   187   186   ar
   115    81    80    2
   116    76    75    1
   117    76    83   am
   118   185   183   ar
   119    84    83    1
   120    78    79    1
   121    78    75    1
   122    80    79    1
   123    80    82   am
   124    24    26   ar
   125    74    75    1
   126   202   199    1
   127   202   203    1
   128   200   201    2
   129   200   199    1
   130   131   129   ar
   131   186   184   ar
   132    27    26   ar
   133   130   129   ar
   134   199   198    1
   135   183   182   ar
   136   183   181   ar
   137   203   204    1
   138   129   128    1
   139   127   126    2
   140   182   180   ar
   141   184   181   ar
   142   181   179   ar
   143   198   204    1
   144   198   190   am
   145   126   125    1
   146   128   125    1
   147   191   190    2
   148   119   118    2
   149   180   179   ar
   150   112   111    2
   151   190   189    1
   152   124   125    1
   153   179   178    1
   154   118   117    1
   155   145   143    1
   156   120   117    1
   157   120   121    1
   158   113   114    1
   159   113   110    1
   160   113   115    1
   161   111   110    1
   162   111   116   am
   163   142   143    2
   164   142   141    1
   165   123   121   ar
   166   109   110    1
   167   143   144    1
   168   189   188    1
   169   189   192    1
   170   230   229    1
   171   141   140    1
   172   178   175    1
   173   117   116    1
   174   121   122   ar
   175   161   160    2
   176   188   176   am
   177   234   233    2
   178   173   171    1
   179   177   176    2
   180   176   175    1
   181   192   193    1
   182   175   174    1
   183   162   159    1
   184   136   137    1
   185   136   139    1
   186   136   135    1
   187   233   232    1
   188   137   138    2
   189   140   139    1
   190   229   228    1
   191   160   159    1
   192   236   235    1
   193   171   172    1
   194   171   170    2
   195   159   158    1
   196   193   194   ar
   197   193   195   ar
   198   228   227    1
   199   170   169    1
   200   194   196   ar
   201   232   235    1
   202   232   231    1
   203   149   148    2
   204   231   225   am
   205   195   197   ar
   206   152   154   ar
   207   152   151   ar
   208   154   156   ar
   209   227   224    1
   210   196   197   ar
   211   169   168    1
   212   148   147    1
   213   146   147    1
   214   225   224    1
   215   225   226    2
   216   168   167    1
   217   166   165    2
   218   150   151    1
   219   150   147    1
   220   224   223    1
   221   151   153   ar
   222   156   157    1
   223   156   155   ar
   224   165   164    1
   225   167   164    1
   226   153   155   ar
   227   164   163    1
