@<TRIPOS>MOLECULE
tmp/2ntrA00.pdb
 200 189 0 0 0
SMALL
GASTEIGER

@<TRIPOS>ATOM
      1  N         31.8360   49.7620    9.4070 N.3    16  SER16      -0.1202
      2  CA        30.8170   48.9530    8.7350 C.3    16  SER16       0.2020
      3  C         30.8480   49.0140    7.2130 C.2    16  SER16       0.2619
      4  O         30.5620   48.0210    6.5400 O.2    16  SER16      -0.2717
      5  CB        29.4160   49.3520    9.2190 C.3    16  SER16       0.2103
      6  OG        29.0460   50.6280    8.7220 O.3    16  SER16      -0.2182
      7  N         31.1900   50.1770    6.6700 N.am   17  GLY17      -0.1942
      8  CA        31.2270   50.3330    5.2300 C.3    17  GLY17       0.2014
      9  C         32.3470   49.6020    4.5140 C.2    17  GLY17       0.2639
     10  O         32.1770   49.1770    3.3700 O.2    17  GLY17      -0.2714
     11  N         33.4920   49.4430    5.1710 N.am   18  GLN18      -0.1963
     12  CA        34.6210   48.7800    4.5330 C.3    18  GLN18       0.1733
     13  C         35.1270   47.5110    5.2090 C.2    18  GLN18       0.2616
     14  O         36.0000   46.8380    4.6750 O.2    18  GLN18      -0.2715
     15  CB        35.7720   49.7720    4.3560 C.3    18  GLN18       0.0408
     16  CG        35.5350   50.7730    3.2130 C.3    18  GLN18       0.0908
     17  CD        36.6840   51.7530    3.0130 C.2    18  GLN18       0.2608
     18  OE1       36.8500   52.3130    1.9270 O.2    18  GLN18      -0.2717
     19  NE2       37.4700   51.9740    4.0590 N.am   18  GLN18      -0.0878
     20  N         34.5780   47.1840    6.3740 N.am   19  GLY19      -0.1955
     21  CA        34.9910   45.9780    7.0670 C.3    19  GLY19       0.1869
     22  C         35.8490   46.1860    8.3040 C.2    19  GLY19       0.2309
     23  O         36.5870   47.1730    8.4180 O.2    19  GLY19      -0.2863
     24  N         40.2930   40.7030    7.3690 N.3    36  LEU36      -0.1245
     25  CA        38.8640   40.9700    7.5320 C.3    36  LEU36       0.1561
     26  C         38.1850   39.8880    8.3840 C.2    36  LEU36       0.2260
     27  O         38.2980   38.7000    8.0850 O.2    36  LEU36      -0.2867
     28  CB        38.1990   40.9890    6.1480 C.3    36  LEU36       0.0270
     29  CG        37.0080   41.8810    5.7630 C.3    36  LEU36       0.0019
     30  CD1       36.0040   41.0250    4.9990 C.3    36  LEU36       0.0001
     31  CD2       36.3580   42.5370    6.9600 C.3    36  LEU36       0.0001
     32  N         35.2550   37.8800    9.0500 N.3    38  ASP38      -0.1239
     33  CA        34.0820   37.5260    8.2450 C.3    38  ASP38       0.1674
     34  C         33.2870   36.2970    8.6990 C.2    38  ASP38       0.2266
     35  O         33.7060   35.1640    8.4610 O.2    38  ASP38      -0.2867
     36  CB        34.5600   37.2960    6.8060 C.3    38  ASP38       0.1410
     37  CG        33.4400   37.3680    5.7960 C.2    38  ASP38       0.3668
     38  OD1       32.9620   38.4840    5.5350 O.co2  38  ASP38      -0.2456
     39  OD2       33.0470   36.3160    5.2590 O.co2  38  ASP38      -0.2456
     40  N         30.5160   35.4070    7.4560 N.3    40  GLY40      -0.1210
     41  CA        29.6880   34.9730    6.3400 C.3    40  GLY40       0.1956
     42  C         30.3610   34.0120    5.3690 C.2    40  GLY40       0.2612
     43  O         29.7810   33.6570    4.3410 O.2    40  GLY40      -0.2717
     44  N         31.5880   33.6000    5.6800 N.am   41  SER41      -0.1952
     45  CA        32.3290   32.6690    4.8310 C.3    41  SER41       0.1924
     46  C         33.2090   31.7840    5.7060 C.2    41  SER41       0.2314
     47  O         33.2910   31.9950    6.9180 O.2    41  SER41      -0.2863
     48  CB        33.1870   33.4250    3.8140 C.3    41  SER41       0.2116
     49  OG        34.2140   34.1440    4.4580 O.3    41  SER41      -0.2180
     50  N         31.7580   35.3260   -3.9330 N.3    77  TYR77      -0.1227
     51  CA        30.8390   35.7500   -2.8760 C.3    77  TYR77       0.1736
     52  C         29.7270   36.5380   -3.5570 C.2    77  TYR77       0.2596
     53  O         29.7760   36.7650   -4.7670 O.2    77  TYR77      -0.2718
     54  CB        31.5330   36.6800   -1.8730 C.3    77  TYR77       0.0548
     55  CG        32.7900   36.1350   -1.2260 C.ar   77  TYR77      -0.0200
     56  CD1       32.7320   35.1000   -0.2880 C.ar   77  TYR77      -0.0009
     57  CD2       34.0320   36.6910   -1.5190 C.ar   77  TYR77      -0.0009
     58  CE1       33.8910   34.6400    0.3510 C.ar   77  TYR77       0.0417
     59  CE2       35.1890   36.2400   -0.8930 C.ar   77  TYR77       0.0417
     60  CZ        35.1140   35.2200    0.0420 C.ar   77  TYR77       0.1957
     61  OH        36.2650   34.8020    0.6710 O.3    77  TYR77      -0.2866
     62  N         28.7300   36.9610   -2.7850 N.am   78  THR78      -0.1939
     63  CA        27.6490   37.7700   -3.3440 C.3    78  THR78       0.2028
     64  C         28.2910   38.9910   -3.9970 C.2    78  THR78       0.2642
     65  O         27.8090   39.4950   -5.0130 O.2    78  THR78      -0.2714
     66  CB        26.6690   38.2300   -2.2510 C.3    78  THR78       0.1808
     67  OG1       25.9590   37.0940   -1.7480 O.3    78  THR78      -0.2208
     68  CG2       25.6720   39.2440   -2.8120 C.3    78  THR78       0.0379
     69  N         29.3840   39.4560   -3.3950 N.am   79  GLN79      -0.1976
     70  CA        30.1520   40.5850   -3.9040 C.3    79  GLN79       0.1601
     71  C         31.6260   40.1940   -3.9730 C.2    79  GLN79       0.2287
     72  O         32.2390   39.8760   -2.9480 O.2    79  GLN79      -0.2864
     73  CB        30.0010   41.8070   -2.9950 C.3    79  GLN79       0.0394
     74  CG        30.8970   42.9640   -3.4040 C.3    79  GLN79       0.0908
     75  CD        30.6350   44.2260   -2.6080 C.2    79  GLN79       0.2608
     76  OE1       29.5370   44.7720   -2.6410 O.2    79  GLN79      -0.2717
     77  NE2       31.6480   44.6950   -1.8870 N.am   79  GLN79      -0.0878
     78  N         37.0000   42.3860   -5.1100 N.3   114  PHE114     -0.1241
     79  CA        37.0530   41.8370   -3.7620 C.3   114  PHE114      0.1605
     80  C         37.7170   42.8180   -2.8040 C.2   114  PHE114      0.2264
     81  O         37.0800   43.3130   -1.8750 O.2   114  PHE114     -0.2867
     82  CB        37.8140   40.5050   -3.7510 C.3   114  PHE114      0.0534
     83  CG        37.9650   39.9120   -2.3780 C.ar  114  PHE114     -0.0203
     84  CD1       36.8470   39.6660   -1.5880 C.ar  114  PHE114     -0.0042
     85  CD2       39.2280   39.6230   -1.8660 C.ar  114  PHE114     -0.0042
     86  CE1       36.9830   39.1400   -0.3030 C.ar  114  PHE114     -0.0003
     87  CE2       39.3760   39.0960   -0.5850 C.ar  114  PHE114     -0.0003
     88  CZ        38.2540   38.8550    0.1980 C.ar  114  PHE114     -0.0000
     89  N         39.0910   46.2000   -1.2740 N.3   116  ILE116     -0.1245
     90  CA        38.5010   47.5340   -1.2730 C.3   116  ILE116      0.1561
     91  C         39.5320   48.6230   -1.0010 C.2   116  ILE116      0.2260
     92  O         40.2640   48.5690   -0.0170 O.2   116  ILE116     -0.2867
     93  CB        37.3740   47.6090   -0.2140 C.3   116  ILE116      0.0252
     94  CG1       36.3100   46.5500   -0.5290 C.3   116  ILE116      0.0019
     95  CG2       36.7480   49.0050   -0.1900 C.3   116  ILE116      0.0019
     96  CD1       35.2840   46.3460    0.5720 C.3   116  ILE116      0.0001
     97  N         42.6940   46.3350    4.7250 N.3   121  TRP121     -0.1241
     98  CA        42.8540   44.9060    4.9910 C.3   121  TRP121      0.1605
     99  C         43.3310   44.2090    3.7190 C.2   121  TRP121      0.2264
    100  O         43.0010   44.6180    2.6020 O.2   121  TRP121     -0.2867
    101  CB        41.5860   44.2310    5.5590 C.3   121  TRP121      0.0550
    102  CG        40.2800   44.4630    4.8490 C.ar  121  TRP121      0.0003
    103  CD1       39.3420   45.4090    5.1580 C.ar  121  TRP121      0.0946
    104  CD2       39.7300   43.6900    3.7720 C.ar  121  TRP121      0.0152
    105  NE1       38.2430   45.2670    4.3480 N.ar  121  TRP121     -0.2442
    106  CE2       38.4530   44.2230    3.4870 C.ar  121  TRP121      0.0810
    107  CE3       40.1920   42.5980    3.0200 C.ar  121  TRP121      0.0012
    108  CZ2       37.6250   43.7030    2.4790 C.ar  121  TRP121      0.0191
    109  CZ3       39.3680   42.0800    2.0150 C.ar  121  TRP121      0.0001
    110  CH2       38.1000   42.6360    1.7560 C.ar  121  TRP121      0.0015
    111  N         41.1460   37.7560    4.3380 N.3   124  ILE124     -0.1245
    112  CA        39.8420   37.5100    4.9460 C.3   124  ILE124      0.1561
    113  C         39.8670   36.2590    5.8200 C.2   124  ILE124      0.2260
    114  O         40.4610   35.2520    5.4520 O.2   124  ILE124     -0.2867
    115  CB        38.7570   37.3560    3.8410 C.3   124  ILE124      0.0252
    116  CG1       37.3750   37.1560    4.4690 C.3   124  ILE124      0.0019
    117  CG2       39.1090   36.1820    2.9170 C.3   124  ILE124      0.0019
    118  CD1       36.2360   37.1970    3.4510 C.3   124  ILE124      0.0001
    119  N         26.3400   38.0530    9.3340 N.3   222  ASP222     -0.1225
    120  CA        27.5880   38.1890    8.5920 C.3   222  ASP222      0.1805
    121  C         28.2810   39.5070    8.8990 C.2   222  ASP222      0.2598
    122  O         27.8690   40.5610    8.4200 O.2   222  ASP222     -0.2718
    123  CB        27.3140   38.0760    7.0890 C.3   222  ASP222      0.1424
    124  CG        28.5810   38.1680    6.2470 C.2   222  ASP222      0.3668
    125  OD1       29.6910   38.1880    6.8140 O.co2 222  ASP222     -0.2456
    126  OD2       28.4590   38.2170    5.0080 O.co2 222  ASP222     -0.2456
    127  N         29.3460   39.4290    9.6920 N.am  223  SER223     -0.1938
    128  CA        30.1240   40.6030   10.0770 C.3   223  SER223      0.2055
    129  C         30.8310   41.2490    8.8820 C.2   223  SER223      0.2644
    130  O         31.2610   42.4060    8.9620 O.2   223  SER223     -0.2714
    131  CB        31.1640   40.2110   11.1310 C.3   223  SER223      0.2130
    132  OG        32.1200   39.3110   10.5840 O.3   223  SER223     -0.2179
    133  N         30.9500   40.4950    7.7890 N.am  224  GLY224     -0.1939
    134  CA        31.6050   40.9790    6.5820 C.3   224  GLY224      0.2014
    135  C         30.6910   41.5360    5.4910 C.2   224  GLY224      0.2640
    136  O         31.1030   41.6510    4.3360 O.2   224  GLY224     -0.2714
    137  N         29.4480   41.8520    5.8500 N.am  225  THR225     -0.1936
    138  CA        28.4710   42.4520    4.9310 C.3   225  THR225      0.2028
    139  C         28.0350   43.7250    5.6530 C.2   225  THR225      0.2643
    140  O         27.7760   43.6970    6.8500 O.2   225  THR225     -0.2714
    141  CB        27.2280   41.5400    4.7040 C.3   225  THR225      0.1808
    142  OG1       27.5880   40.4280    3.8730 O.3   225  THR225     -0.2208
    143  CG2       26.1040   42.3180    4.0170 C.3   225  THR225      0.0379
    144  N         27.9650   44.8440    4.9420 N.am  226  THR226     -0.1936
    145  CA        27.5880   46.0980    5.5770 C.3   226  THR226      0.2028
    146  C         26.1410   46.1970    6.0570 C.2   226  THR226      0.2642
    147  O         25.8780   46.4170    7.2390 O.2   226  THR226     -0.2714
    148  CB        27.8330   47.2980    4.6260 C.3   226  THR226      0.1808
    149  OG1       29.2130   47.3340    4.2430 O.3   226  THR226     -0.2208
    150  CG2       27.4700   48.6120    5.3160 C.3   226  THR226      0.0379
    151  N         25.2150   46.0160    5.1240 N.am  227  ASN227     -0.1971
    152  CA        23.7880   46.1750    5.3690 C.3   227  ASN227      0.1688
    153  C         22.9920   45.0830    6.0530 C.2   227  ASN227      0.2292
    154  O         23.4750   43.9900    6.3440 O.2   227  ASN227     -0.2864
    155  CB        23.0760   46.4430    4.0350 C.3   227  ASN227      0.1181
    156  CG        23.5090   47.7360    3.3790 C.2   227  ASN227      0.2629
    157  OD1       24.3280   48.4730    3.9150 O.2   227  ASN227     -0.2716
    158  ND2       22.9500   48.0170    2.2050 N.am  227  ASN227     -0.0877
    159  N         20.3340   42.9950    4.9510 N.3   229  ARG229     -0.1245
    160  CA        19.7970   42.6390    3.6460 C.3   229  ARG229      0.1563
    161  C         18.5540   41.7880    3.8540 C.2   229  ARG229      0.2260
    162  O         18.5580   40.8510    4.6520 O.2   229  ARG229     -0.2867
    163  CB        20.8630   41.9000    2.8280 C.3   229  ARG229      0.0307
    164  CG        22.1940   42.6620    2.7550 C.3   229  ARG229      0.0489
    165  CD        23.1920   41.9720    1.8400 C.3   229  ARG229      0.2205
    166  NE        22.6940   41.9140    0.4670 N.pl3 229  ARG229     -0.0865
    167  CZ        22.7620   40.8390   -0.3110 C.cat 229  ARG229      0.5346
    168  NH1       23.3110   39.7190    0.1440 N.pl3 229  ARG229      0.1354
    169  NH2       22.2660   40.8800   -1.5410 N.pl3 229  ARG229      0.1354
    170  N         23.9020   54.8740    7.5670 N.3   301  ARG301     -0.1245
    171  CA        25.3410   54.9480    7.7790 C.3   301  ARG301      0.1563
    172  C         26.0380   56.0920    7.0550 C.2   301  ARG301      0.2260
    173  O         25.7630   56.3740    5.8860 O.2   301  ARG301     -0.2867
    174  CB        26.0100   53.6270    7.3900 C.3   301  ARG301      0.0307
    175  CG        26.2110   53.4590    5.9130 C.3   301  ARG301      0.0489
    176  CD        27.0060   52.2070    5.5740 C.3   301  ARG301      0.2205
    177  NE        27.3190   52.2090    4.1510 N.pl3 301  ARG301     -0.0865
    178  CZ        28.3570   52.8350    3.6090 C.cat 301  ARG301      0.5346
    179  NH1       29.2100   53.5080    4.3690 N.pl3 301  ARG301      0.1354
    180  NH2       28.5210   52.8130    2.2960 N.pl3 301  ARG301      0.1354
    181  N         23.6620   57.0200    3.8250 N.3   315  LYS315     -0.1245
    182  CA        23.1080   56.0870    2.8630 C.3   315  LYS315      0.1561
    183  C         22.2380   55.1050    3.6470 C.2   315  LYS315      0.2260
    184  O         22.6050   54.6780    4.7420 O.2   315  LYS315     -0.2867
    185  CB        24.2290   55.3340    2.1360 C.3   315  LYS315      0.0271
    186  CG        23.7320   54.3770    1.0550 C.3   315  LYS315      0.0035
    187  CD        24.8620   53.8720    0.1660 C.3   315  LYS315      0.0206
    188  CE        24.3010   53.1730   -1.0690 C.3   315  LYS315      0.1093
    189  NZ        25.3550   52.8030   -2.0570 N.3   315  LYS315     -0.1314
    190  N         18.9010   46.8800    2.4340 N.3   319  SER319     -0.1217
    191  CA        18.7710   46.6030    1.0100 C.3   319  SER319      0.1889
    192  C         18.1770   45.2270    0.7490 C.2   319  SER319      0.2288
    193  O         17.9020   44.4720    1.6840 O.2   319  SER319     -0.2866
    194  CB        20.1410   46.7170    0.3310 C.3   319  SER319      0.2089
    195  OG        21.0960   45.8640    0.9460 O.3   319  SER319     -0.2183
    196  N         27.0040   44.1500    9.4490 N.3   329  ALA329     -0.1245
    197  CA        27.7100   44.9700   10.4240 C.3   329  ALA329      0.1562
    198  C         26.9230   46.1120   11.0660 C.2   329  ALA329      0.2260
    199  O         27.0990   46.3710   12.2550 O.2   329  ALA329     -0.2867
    200  CB        28.9900   45.5120    9.8010 C.3   329  ALA329      0.0290
@<TRIPOS>BOND
     1    78    79    1
     2    65    64    2
     3    53    52    2
     4    64    69   am
     5    64    63    1
     6    71    70    1
     7    71    72    2
     8    50    51    1
     9    70    69    1
    10    70    73    1
    11    79    82    1
    12    79    80    1
    13    82    83    1
    14    52    51    1
    15    52    62   am
    16    74    73    1
    17    74    75    1
    18    63    62    1
    19    63    66    1
    20    51    54    1
    21    68    66    1
    22    80    81    2
    23    76    75    2
    24    75    77   am
    25    83    85   ar
    26    83    84   ar
    27    66    67    1
    28   189   188    1
    29    54    55    1
    30    85    87   ar
    31    84    86   ar
    32   169   167    1
    33    57    55   ar
    34    57    59   ar
    35    89    90    1
    36    90    91    1
    37    90    93    1
    38    55    56   ar
    39   188   187    1
    40    91    92    2
    41    59    60   ar
    42    87    88   ar
    43    94    93    1
    44    94    96    1
    45   167   168    1
    46   167   166    2
    47    86    88   ar
    48    56    58   ar
    49    93    95    1
    50    60    58   ar
    51    60    61    1
    52   187   186    1
    53   194   195    1
    54   194   191    1
    55   166   165    1
    56   192   191    1
    57   192   193    2
    58   191   190    1
    59   186   185    1
    60   110   109   ar
    61   110   108   ar
    62   165   164    1
    63    18    17    2
    64   109   107   ar
    65   185   182    1
    66   158   156   am
    67   180   178    1
    68   108   106   ar
    69   100    99    2
    70   164   163    1
    71   163   160    1
    72   182   183    1
    73   182   181    1
    74   117   115    1
    75    17    16    1
    76    17    19   am
    77   107   104   ar
    78    16    15    1
    79    10     9    2
    80   156   157    2
    81   156   155    1
    82   118   116    1
    83   106   104   ar
    84   106   105   ar
    85   178   177    2
    86   178   179    1
    87   160   161    1
    88   160   159    1
    89   183   184    2
    90    99    98    1
    91   104   102   ar
    92    48    49    1
    93    48    45    1
    94   115   116    1
    95   115   112    1
    96   161   162    2
    97   142   141    1
    98   143   141    1
    99   155   152    1
   100   177   176    1
   101   149   148    1
   102   136   135    2
   103   111   112    1
   104    43    42    2
   105   105   103   ar
   106    15    12    1
   107     9    11   am
   108     9     8    1
   109    12    11    1
   110    12    13    1
   111   148   150    1
   112   148   145    1
   113    14    13    2
   114   141   138    1
   115    97    98    1
   116    45    44    1
   117    45    46    1
   118   102   103   ar
   119   102   101    1
   120   138   139    1
   121   138   137    1
   122   144   145    1
   123   144   139   am
   124   112   113    1
   125    98   101    1
   126    30    29    1
   127   126   124   ar
   128   151   152    1
   129   151   146   am
   130    13    20   am
   131     8     7    1
   132    39    37   ar
   133    42    44   am
   134    42    41    1
   135   152   153    1
   136   114   113    2
   137   135   137   am
   138   135   134    1
   139    38    37   ar
   140   176   175    1
   141   145   146    1
   142   139   140    2
   143    46    47    2
   144    29    28    1
   145    29    31    1
   146    37    36    1
   147   173   172    2
   148   175   174    1
   149   153   154    2
   150   146   147    2
   151    28    25    1
   152   124   125   ar
   153   124   123    1
   154    41    40    1
   155    20    21    1
   156     4     3    2
   157   134   133    1
   158     7     3   am
   159    36    33    1
   160   172   171    1
   161    21    22    1
   162   123   120    1
   163     3     2    1
   164    24    25    1
   165   174   171    1
   166    25    26    1
   167   170   171    1
   168   133   129   am
   169    27    26    2
   170    33    34    1
   171    33    32    1
   172    22    23    2
   173   122   121    2
   174    35    34    2
   175   120   121    1
   176   120   119    1
   177     6     5    1
   178     2     5    1
   179     2     1    1
   180   129   130    2
   181   129   128    1
   182   121   127   am
   183   196   197    1
   184   127   128    1
   185   200   197    1
   186   128   131    1
   187   197   198    1
   188   132   131    1
   189   198   199    2
