@<TRIPOS>MOLECULE
tmp/2nu6B01.pdb
 85 81 0 0 0
SMALL
GASTEIGER

@<TRIPOS>ATOM
      1  N         27.5090   71.1680   78.8230 N.3   318  ILE318     -0.1245
      2  CA        27.2630   71.2680   77.3970 C.3   318  ILE318      0.1561
      3  C         27.8970   72.4820   76.8170 C.2   318  ILE318      0.2260
      4  O         27.5720   73.5930   77.1810 O.2   318  ILE318     -0.2867
      5  CB        25.7700   71.2580   77.1170 C.3   318  ILE318      0.0252
      6  CG1       25.2180   69.9120   77.6270 C.3   318  ILE318      0.0019
      7  CG2       25.5140   71.5300   75.6550 C.3   318  ILE318      0.0019
      8  CD1       24.2050   69.2580   76.7710 C.3   318  ILE318      0.0001
      9  N         28.3800   74.2520   73.3570 N.3   320  GLY320     -0.1210
     10  CA        27.9890   74.3070   71.9540 C.3   320  GLY320      0.1956
     11  C         27.0200   73.2220   71.4940 C.2   320  GLY320      0.2612
     12  O         26.1270   72.7900   72.2310 O.2   320  GLY320     -0.2717
     13  N         27.1880   72.7710   70.2650 N.am  321  GLY321     -0.1942
     14  CA        26.2940   71.7610   69.7450 C.3   321  GLY321      0.2014
     15  C         25.3390   72.3730   68.7330 C.2   321  GLY321      0.2639
     16  O         25.5830   73.4670   68.2310 O.2   321  GLY321     -0.2714
     17  N         24.2350   71.6890   68.4430 N.am  322  ILE322     -0.1963
     18  CA        23.2760   72.1780   67.4470 C.3   322  ILE322      0.1727
     19  C         22.0990   72.9770   68.0040 C.2   322  ILE322      0.2616
     20  O         21.5580   73.8690   67.3450 O.2   322  ILE322     -0.2715
     21  CB        22.7060   70.9890   66.5710 C.3   322  ILE322      0.0290
     22  CG1       21.7730   70.0820   67.4000 C.3   322  ILE322      0.0022
     23  CG2       23.8680   70.1600   65.9930 C.3   322  ILE322      0.0023
     24  CD1       20.8960   69.1400   66.5500 C.3   322  ILE322      0.0001
     25  N         21.7050   72.6440   69.2250 N.am  323  VAL323     -0.1963
     26  CA        20.5910   73.3110   69.8850 C.3   323  VAL323      0.1727
     27  C         21.1300   74.4820   70.6990 C.2   323  VAL323      0.2616
     28  O         22.2090   74.3670   71.2910 O.2   323  VAL323     -0.2715
     29  CB        19.8780   72.3180   70.8120 C.3   323  VAL323      0.0290
     30  CG1       18.6840   72.9660   71.4290 C.3   323  VAL323      0.0023
     31  CG2       19.4690   71.0740   70.0300 C.3   323  VAL323      0.0023
     32  N         20.3930   75.5960   70.7140 N.am  324  ARG324     -0.1963
     33  CA        20.8020   76.7920   71.4760 C.3   324  ARG324      0.1729
     34  C         20.6680   76.5370   72.9760 C.2   324  ARG324      0.2616
     35  O         19.8020   75.7500   73.3940 O.2   324  ARG324     -0.2715
     36  CB        19.9450   77.9960   71.1140 C.3   324  ARG324      0.0348
     37  CG        19.9700   78.4150   69.6430 C.3   324  ARG324      0.0492
     38  CD        19.2230   79.7450   69.4690 C.3   324  ARG324      0.2205
     39  NE        17.8890   79.7240   70.0940 N.pl3 324  ARG324     -0.0865
     40  CZ        17.1160   80.7950   70.2760 C.cat 324  ARG324      0.5346
     41  NH1       17.5290   82.0040   69.8800 N.pl3 324  ARG324      0.1354
     42  NH2       15.9270   80.6560   70.8570 N.pl3 324  ARG324      0.1354
     43  N         21.4880   77.2260   73.7800 N.am  325  CYS325     -0.1968
     44  CA        21.4980   77.0000   75.2300 C.3   325  CYS325      0.1712
     45  C         20.1780   77.0930   75.9940 C.2   325  CYS325      0.2296
     46  O         20.0030   76.4240   77.0220 O.2   325  CYS325     -0.2864
     47  CB        22.5100   77.8880   75.9210 C.3   325  CYS325      0.0983
     48  SG        24.2870   77.6110   75.6090 S.3   325  CYS325     -0.0798
     49  N         18.2120   73.8960   75.2690 N.3   328  ILE328     -0.1245
     50  CA        18.8410   72.8260   76.0220 C.3   328  ILE328      0.1561
     51  C         18.3370   72.8970   77.4680 C.2   328  ILE328      0.2260
     52  O         18.0420   71.8620   78.0890 O.2   328  ILE328     -0.2867
     53  CB        20.3770   72.9560   75.9900 C.3   328  ILE328      0.0252
     54  CG1       20.9110   72.4500   74.6620 C.3   328  ILE328      0.0019
     55  CG2       21.0140   72.1640   77.1230 C.3   328  ILE328      0.0019
     56  CD1       22.4160   72.4190   74.6520 C.3   328  ILE328      0.0001
     57  N         26.7090   75.6460   80.8330 N.3   349  LEU349     -0.1231
     58  CA        26.2640   75.9050   79.4650 C.3   349  LEU349      0.1693
     59  C         27.1510   76.9510   78.7910 C.2   349  LEU349      0.2592
     60  O         27.4320   77.9860   79.3700 O.2   349  LEU349     -0.2718
     61  CB        24.8090   76.3760   79.4330 C.3   349  LEU349      0.0284
     62  CG        23.7340   75.3550   79.7460 C.3   349  LEU349      0.0019
     63  CD1       22.3680   75.9410   79.5060 C.3   349  LEU349      0.0001
     64  CD2       23.9080   74.1570   78.8680 C.3   349  LEU349      0.0001
     65  N         27.6140   76.6540   77.5760 N.am  350  GLU350     -0.1966
     66  CA        28.4370   77.5750   76.7860 C.3   350  GLU350      0.1733
     67  C         27.8800   77.6650   75.4060 C.2   350  GLU350      0.2617
     68  O         27.4820   76.6550   74.8150 O.2   350  GLU350     -0.2715
     69  CB        29.8600   77.1130   76.6600 C.3   350  GLU350      0.0429
     70  CG        30.6680   77.4320   77.8400 C.3   350  GLU350      0.1163
     71  CD        30.6020   78.9050   78.1790 C.2   350  GLU350      0.3649
     72  OE1       30.6200   79.7290   77.2150 O.co2 350  GLU350     -0.2457
     73  OE2       30.5430   79.2160   79.4140 O.co2 350  GLU350     -0.2457
     74  N         27.8600   78.8820   74.8830 N.am  351  GLY351     -0.1940
     75  CA        27.3100   79.0890   73.5630 C.3   351  GLY351      0.2014
     76  C         26.2050   80.1320   73.5640 C.2   351  GLY351      0.2638
     77  O         25.8980   80.7790   74.5710 O.2   351  GLY351     -0.2714
     78  N         25.5970   80.2880   72.4030 N.am  352  ASN352     -0.1972
     79  CA        24.5400   81.2420   72.2190 C.3   352  ASN352      0.1688
     80  C         23.4310   81.0660   73.2440 C.2   352  ASN352      0.2292
     81  O         22.8220   79.9670   73.3540 O.2   352  ASN352     -0.2864
     82  CB        24.0130   81.1330   70.7780 C.3   352  ASN352      0.1181
     83  CG        25.1600   81.2220   69.7380 C.2   352  ASN352      0.2629
     84  OD1       26.0550   82.0930   69.8340 O.2   352  ASN352     -0.2716
     85  ND2       25.1380   80.3210   68.7490 N.am  352  ASN352     -0.0877
@<TRIPOS>BOND
     1    23    21    1
     2    24    22    1
     3    21    22    1
     4    21    18    1
     5    20    19    2
     6    18    19    1
     7    18    17    1
     8    19    25   am
     9    16    15    2
    10    17    15   am
    11    15    14    1
    12    85    83   am
    13    25    26    1
    14    38    37    1
    15    38    39    1
    16    37    36    1
    17    83    84    2
    18    83    82    1
    19    14    13    1
    20    41    40    1
    21    26    27    1
    22    26    29    1
    23    31    29    1
    24    39    40    2
    25    13    11   am
    26    40    42    1
    27    27    32   am
    28    27    28    2
    29    32    33    1
    30    82    79    1
    31    29    30    1
    32    36    33    1
    33    33    34    1
    34    11    10    1
    35    11    12    2
    36    10     9    1
    37    79    78    1
    38    79    80    1
    39    78    76   am
    40    34    35    2
    41    34    43   am
    42    80    81    2
    43    75    76    1
    44    75    74    1
    45    76    77    2
    46    43    44    1
    47    56    54    1
    48    54    53    1
    49    68    67    2
    50    74    67   am
    51    44    47    1
    52    44    45    1
    53    49    50    1
    54    67    66    1
    55    48    47    1
    56     7     5    1
    57    53    50    1
    58    53    55    1
    59    45    46    2
    60    50    51    1
    61    69    66    1
    62    69    70    1
    63     8     6    1
    64    66    65    1
    65     3     4    2
    66     3     2    1
    67     5     2    1
    68     5     6    1
    69    72    71   ar
    70     2     1    1
    71    51    52    2
    72    65    59   am
    73    70    71    1
    74    71    73   ar
    75    59    60    2
    76    59    58    1
    77    64    62    1
    78    61    58    1
    79    61    62    1
    80    58    57    1
    81    63    62    1
