@<TRIPOS>MOLECULE
tmp/2nu7D02.pdb
 85 81 0 0 0
SMALL
GASTEIGER

@<TRIPOS>ATOM
      1  N          0.8300   17.3660   90.2080 N.3   318  ILE318     -0.1245
      2  CA         1.8810   16.5000   89.7880 C.3   318  ILE318      0.1561
      3  C          1.3730   15.0970   89.8070 C.2   318  ILE318      0.2260
      4  O          0.9920   14.5880   90.8530 O.2   318  ILE318     -0.2867
      5  CB         3.0820   16.5910   90.7160 C.3   318  ILE318      0.0252
      6  CG1        3.6180   18.0200   90.7330 C.3   318  ILE318      0.0019
      7  CG2        4.1390   15.5980   90.2770 C.3   318  ILE318      0.0019
      8  CD1        4.1360   18.4950   89.4200 C.3   318  ILE318      0.0001
      9  N          2.7330   11.5400   88.8660 N.3   320  GLY320     -0.1210
     10  CA         3.8500   10.7320   88.4100 C.3   320  GLY320      0.1956
     11  C          5.1000   11.5610   88.2110 C.2   320  GLY320      0.2612
     12  O          5.2910   12.5630   88.8760 O.2   320  GLY320     -0.2717
     13  N          5.9480   11.1610   87.2790 N.am  321  GLY321     -0.1942
     14  CA         7.1840   11.8780   87.0530 C.3   321  GLY321      0.2014
     15  C          8.3060   10.9570   87.4660 C.2   321  GLY321      0.2639
     16  O          8.0840    9.7640   87.6370 O.2   321  GLY321     -0.2714
     17  N          9.5060   11.4950   87.6420 N.am  322  ILE322     -0.1963
     18  CA        10.6650   10.6800   88.0050 C.3   322  ILE322      0.1727
     19  C         11.0220   10.8230   89.4880 C.2   322  ILE322      0.2616
     20  O         11.7750   10.0250   90.0510 O.2   322  ILE322     -0.2715
     21  CB        11.9030   11.0870   87.1650 C.3   322  ILE322      0.0290
     22  CG1       12.1960   12.5780   87.3700 C.3   322  ILE322      0.0022
     23  CG2       11.6580   10.8010   85.6820 C.3   322  ILE322      0.0023
     24  CD1       13.5350   13.0510   86.7700 C.3   322  ILE322      0.0001
     25  N         10.4590   11.8450   90.1120 N.am  323  VAL323     -0.1963
     26  CA        10.7150   12.1250   91.5210 C.3   323  VAL323      0.1727
     27  C          9.5570   11.5800   92.3600 C.2   323  VAL323      0.2616
     28  O          8.3980   11.6980   91.9480 O.2   323  VAL323     -0.2715
     29  CB        10.8120   13.6620   91.7460 C.3   323  VAL323      0.0290
     30  CG1       11.5370   13.9620   93.0270 C.3   323  VAL323      0.0023
     31  CG2       11.5240   14.3290   90.5530 C.3   323  VAL323      0.0023
     32  N          9.8580   10.9930   93.5210 N.am  324  ARG324     -0.1963
     33  CA         8.7990   10.4690   94.3950 C.3   324  ARG324      0.1729
     34  C          8.0050   11.6500   94.9790 C.2   324  ARG324      0.2616
     35  O          8.5700   12.6950   95.2800 O.2   324  ARG324     -0.2715
     36  CB         9.3980    9.6250   95.5260 C.3   324  ARG324      0.0348
     37  CG        10.2130    8.4100   95.0820 C.3   324  ARG324      0.0492
     38  CD        10.6470    7.5940   96.2990 C.3   324  ARG324      0.2205
     39  NE        11.3270    8.4160   97.3200 N.pl3 324  ARG324     -0.0865
     40  CZ        11.5290    8.0540   98.6000 C.cat 324  ARG324      0.5346
     41  NH1       11.1080    6.8670   99.0640 N.pl3 324  ARG324      0.1354
     42  NH2       12.1650    8.8870   99.4260 N.pl3 324  ARG324      0.1354
     43  N          6.6950   11.5110   95.1390 N.am  325  CYS325     -0.1968
     44  CA         5.9180   12.6200   95.6650 C.3   325  CYS325      0.1712
     45  C          6.5090   13.2780   96.9010 C.2   325  CYS325      0.2296
     46  O          6.4860   14.5110   97.0120 O.2   325  CYS325     -0.2864
     47  CB         4.5030   12.1950   95.9820 C.3   325  CYS325      0.0983
     48  SG         3.4230   11.9050   94.5550 S.3   325  CYS325     -0.0798
     49  N          9.0180   15.6090   95.8960 N.3   328  ILE328     -0.1245
     50  CA         8.3930   16.7290   95.2300 C.3   328  ILE328      0.1561
     51  C          7.8320   17.6780   96.2820 C.2   328  ILE328      0.2260
     52  O          7.8770   18.8950   96.1220 O.2   328  ILE328     -0.2867
     53  CB         7.2550   16.2740   94.3140 C.3   328  ILE328      0.0252
     54  CG1        7.8470   15.6180   93.0720 C.3   328  ILE328      0.0019
     55  CG2        6.3860   17.4350   93.9190 C.3   328  ILE328      0.0019
     56  CD1        6.8320   15.2640   92.0790 C.3   328  ILE328      0.0001
     57  N         -0.9020   15.5830   94.5320 N.3   349  LEU349     -0.1231
     58  CA         0.1700   14.6370   94.2540 C.3   349  LEU349      0.1693
     59  C         -0.4200   13.2440   94.0180 C.2   349  LEU349      0.2592
     60  O         -1.3070   12.7790   94.7560 O.2   349  LEU349     -0.2718
     61  CB         1.1670   14.5810   95.4190 C.3   349  LEU349      0.0284
     62  CG         1.9520   15.8660   95.6900 C.3   349  LEU349      0.0019
     63  CD1        2.8630   15.6520   96.8950 C.3   349  LEU349      0.0001
     64  CD2        2.7610   16.2410   94.4870 C.3   349  LEU349      0.0001
     65  N          0.0650   12.5930   92.9710 N.am  350  GLU350     -0.1966
     66  CA        -0.3670   11.2520   92.6340 C.3   350  GLU350      0.1733
     67  C          0.8680   10.4420   92.2990 C.2   350  GLU350      0.2617
     68  O          1.7580   10.8980   91.5700 O.2   350  GLU350     -0.2715
     69  CB        -1.3150   11.2690   91.4420 C.3   350  GLU350      0.0429
     70  CG        -2.7620   11.2550   91.8260 C.3   350  GLU350      0.1163
     71  CD        -3.0900   10.1960   92.8920 C.2   350  GLU350      0.3649
     72  OE1       -2.5920    9.0290   92.8290 O.co2 350  GLU350     -0.2457
     73  OE2       -3.8740   10.5590   93.7900 O.co2 350  GLU350     -0.2457
     74  N          0.9290    9.2360   92.8310 N.am  351  GLY351     -0.1940
     75  CA         2.0920    8.4230   92.5590 C.3   351  GLY351      0.2014
     76  C          2.6960    7.9520   93.8620 C.2   351  GLY351      0.2638
     77  O          2.0950    8.1050   94.9300 O.2   351  GLY351     -0.2714
     78  N          3.8980    7.4000   93.7830 N.am  352  ASN352     -0.1972
     79  CA         4.5690    6.8590   94.9540 C.3   352  ASN352      0.1688
     80  C          4.8400    7.8460   96.1050 C.2   352  ASN352      0.2292
     81  O          5.5240    8.8620   95.9560 O.2   352  ASN352     -0.2864
     82  CB         5.8530    6.1200   94.5170 C.3   352  ASN352      0.1181
     83  CG         5.5610    4.9380   93.5230 C.2   352  ASN352      0.2629
     84  OD1        4.6290    4.1250   93.7210 O.2   352  ASN352     -0.2716
     85  ND2        6.3680    4.8490   92.4660 N.am  352  ASN352     -0.0877
@<TRIPOS>BOND
     1    23    21    1
     2    24    22    1
     3    14    13    1
     4    14    15    1
     5    21    22    1
     6    21    18    1
     7    13    11   am
     8    15    16    2
     9    15    17   am
    10    17    18    1
    11    18    19    1
    12    11    10    1
    13    11    12    2
    14    10     9    1
    15     8     6    1
    16    19    20    2
    17    19    25   am
    18     2     3    1
    19     2     1    1
    20     2     5    1
    21     3     4    2
    22    25    26    1
    23     7     5    1
    24    31    29    1
    25     5     6    1
    26    69    70    1
    27    69    66    1
    28    26    29    1
    29    26    27    1
    30    68    67    2
    31    29    30    1
    32    70    71    1
    33    28    27    2
    34    56    54    1
    35    67    66    1
    36    67    74   am
    37    27    32   am
    38    85    83   am
    39    75    74    1
    40    75    76    1
    41    66    65    1
    42    72    71   ar
    43    71    73   ar
    44    65    59   am
    45    54    53    1
    46    32    33    1
    47    83    84    2
    48    83    82    1
    49    78    76   am
    50    78    79    1
    51    76    77    2
    52    55    53    1
    53    59    58    1
    54    59    60    2
    55    58    57    1
    56    58    61    1
    57    53    50    1
    58    33    34    1
    59    33    36    1
    60    64    62    1
    61    82    79    1
    62    48    47    1
    63    79    80    1
    64    34    43   am
    65    34    35    2
    66    37    36    1
    67    37    38    1
    68    43    44    1
    69    50    49    1
    70    50    51    1
    71    61    62    1
    72    44    47    1
    73    44    45    1
    74    62    63    1
    75    81    80    2
    76    52    51    2
    77    38    39    1
    78    45    46    2
    79    39    40    2
    80    40    41    1
    81    40    42    1
