@<TRIPOS>MOLECULE
tmp/2nunA00.pdb
 152 145 0 0 0
SMALL
GASTEIGER

@<TRIPOS>ATOM
      1  N        -79.8240   52.4600  -10.2580 N.3    31  GLY31      -0.1210
      2  CA       -80.4350   51.2090   -9.8550 C.3    31  GLY31       0.1956
      3  C        -79.7150   49.9530  -10.3130 C.2    31  GLY31       0.2612
      4  O        -80.2260   48.8490  -10.1460 O.2    31  GLY31      -0.2717
      5  N        -78.5320   50.1100  -10.8940 N.am   32  ALA32      -0.1965
      6  CA       -77.7570   48.9600  -11.3520 C.3    32  ALA32       0.1728
      7  C        -77.0070   48.3650  -10.1720 C.2    32  ALA32       0.2616
      8  O        -76.6870   49.0720   -9.2180 O.2    32  ALA32      -0.2715
      9  CB       -76.7620   49.3890  -12.4360 C.3    32  ALA32       0.0334
     10  N        -76.7370   47.0650  -10.2290 N.am   33  ALA33      -0.1977
     11  CA       -75.9910   46.4100   -9.1580 C.3    33  ALA33       0.1597
     12  C        -74.5450   46.9440   -9.1480 C.2    33  ALA33       0.2287
     13  O        -74.1720   47.7210   -8.2530 O.2    33  ALA33      -0.2864
     14  CB       -76.0040   44.9010   -9.3510 C.3    33  ALA33       0.0319
     15  N        -80.8340   45.7570  -22.2900 N.3    43  GLU43      -0.1231
     16  CA       -81.8670   45.5360  -21.2890 C.3    43  GLU43       0.1699
     17  C        -81.4880   46.2110  -19.9790 C.2    43  GLU43       0.2592
     18  O        -82.2160   47.0680  -19.4830 O.2    43  GLU43      -0.2718
     19  CB       -82.0730   44.0410  -21.0430 C.3    43  GLU43       0.0402
     20  CG       -82.8180   43.3210  -22.1510 C.3    43  GLU43       0.1161
     21  CD       -83.2140   41.9050  -21.7630 C.2    43  GLU43       0.3649
     22  OE1      -82.3060   41.0800  -21.5170 O.co2  43  GLU43      -0.2457
     23  OE2      -84.4330   41.6210  -21.7010 O.co2  43  GLU43      -0.2457
     24  N        -80.3480   45.8150  -19.4220 N.am   44  ASN44      -0.1974
     25  CA       -79.8760   46.3880  -18.1710 C.3    44  ASN44       0.1688
     26  C        -79.9060   47.9010  -18.2530 C.2    44  ASN44       0.2292
     27  O        -80.3180   48.5680  -17.3070 O.2    44  ASN44      -0.2864
     28  CB       -78.4530   45.9100  -17.8660 C.3    44  ASN44       0.1181
     29  CG       -78.4020   44.4420  -17.4920 C.2    44  ASN44       0.2629
     30  OD1      -78.9320   43.5900  -18.2030 O.2    44  ASN44      -0.2716
     31  ND2      -77.7590   44.1370  -16.3730 N.am   44  ASN44      -0.0877
     32  N        -83.5240   49.1300  -18.2000 N.3    47  TYR47      -0.1227
     33  CA       -84.1010   48.8910  -16.8850 C.3    47  TYR47       0.1736
     34  C        -83.7520   50.0790  -15.9980 C.2    47  TYR47       0.2595
     35  O        -84.6130   50.6460  -15.3260 O.2    47  TYR47      -0.2718
     36  CB       -83.5210   47.6010  -16.3010 C.3    47  TYR47       0.0548
     37  CG       -83.7800   47.4000  -14.8300 C.ar   47  TYR47      -0.0200
     38  CD1      -84.8460   46.6120  -14.3920 C.ar   47  TYR47      -0.0009
     39  CD2      -82.9590   47.9980  -13.8750 C.ar   47  TYR47      -0.0009
     40  CE1      -85.0910   46.4190  -13.0400 C.ar   47  TYR47       0.0417
     41  CE2      -83.1900   47.8200  -12.5160 C.ar   47  TYR47       0.0417
     42  CZ       -84.2590   47.0270  -12.1010 C.ar   47  TYR47       0.1957
     43  OH       -84.4950   46.8480  -10.7580 O.3    47  TYR47      -0.2866
     44  N        -82.4800   50.4570  -16.0280 N.am   48  CYS48      -0.1970
     45  CA       -81.9890   51.5790  -15.2470 C.3    48  CYS48       0.1712
     46  C        -82.5900   52.8950  -15.7120 C.2    48  CYS48       0.2296
     47  O        -83.0030   53.7130  -14.8920 O.2    48  CYS48      -0.2864
     48  CB       -80.4630   51.6560  -15.3380 C.3    48  CYS48       0.0983
     49  SG       -79.6060   50.3230  -14.4870 S.3    48  CYS48      -0.0798
     50  N        -85.9110   53.2030  -14.3990 N.3    51  MET51      -0.1245
     51  CA       -85.9330   53.5150  -12.9720 C.3    51  MET51       0.1570
     52  C        -85.6990   55.0070  -12.7620 C.2    51  MET51       0.2261
     53  O        -86.3270   55.6270  -11.9020 O.2    51  MET51      -0.2867
     54  CB       -84.8830   52.7150  -12.1860 C.3    51  MET51       0.0387
     55  CG       -85.0060   52.9280  -10.6730 C.3    51  MET51       0.0595
     56  SD       -84.0310   51.8650   -9.5870 S.3    51  MET51      -0.1393
     57  CE       -83.0930   53.0820   -8.7380 C.3    51  MET51       0.0692
     58  N        -91.2510   48.2680  -10.3060 N.3    81  ARG81      -0.1245
     59  CA       -90.4520   47.0600  -10.3190 C.3    81  ARG81       0.1563
     60  C        -91.1670   45.8900  -10.9860 C.2    81  ARG81       0.2260
     61  O        -90.5810   45.1770  -11.7950 O.2    81  ARG81      -0.2867
     62  CB       -90.0670   46.6760   -8.8900 C.3    81  ARG81       0.0307
     63  CG       -89.2820   45.3940   -8.8200 C.3    81  ARG81       0.0489
     64  CD       -87.9680   45.5580   -9.5390 C.3    81  ARG81       0.2205
     65  NE       -87.6790   44.3960  -10.3690 N.pl3  81  ARG81      -0.0865
     66  CZ       -86.4790   43.8510  -10.4610 C.cat  81  ARG81       0.5346
     67  NH1      -85.4910   44.3870   -9.7620 N.pl3  81  ARG81       0.1354
     68  NH2      -86.2660   42.7920  -11.2320 N.pl3  81  ARG81       0.1354
     69  N        -92.1200   39.3690   -5.7710 N.3    95  PHE95      -0.1241
     70  CA       -91.7270   40.7560   -5.9900 C.3    95  PHE95       0.1605
     71  C        -92.8300   41.7310   -5.5620 C.2    95  PHE95       0.2264
     72  O        -92.5780   42.9210   -5.3780 O.2    95  PHE95      -0.2867
     73  CB       -91.3820   41.0150   -7.4600 C.3    95  PHE95       0.0534
     74  CG       -90.0040   40.5800   -7.8490 C.ar   95  PHE95      -0.0203
     75  CD1      -89.7530   39.2670   -8.2430 C.ar   95  PHE95      -0.0042
     76  CD2      -88.9440   41.4830   -7.8030 C.ar   95  PHE95      -0.0042
     77  CE1      -88.4660   38.8580   -8.5910 C.ar   95  PHE95      -0.0003
     78  CE2      -87.6430   41.0820   -8.1510 C.ar   95  PHE95      -0.0003
     79  CZ       -87.4090   39.7660   -8.5430 C.ar   95  PHE95      -0.0000
     80  N        -72.3210   37.1150   -5.2680 N.3   113  TYR113     -0.1241
     81  CA       -71.9850   37.7650   -4.0010 C.3   113  TYR113      0.1605
     82  C        -70.5940   37.4410   -3.4570 C.2   113  TYR113      0.2264
     83  O        -70.2370   37.8740   -2.3610 O.2   113  TYR113     -0.2867
     84  CB       -73.0310   37.4150   -2.9410 C.3   113  TYR113      0.0534
     85  CG       -74.4580   37.6140   -3.3980 C.ar  113  TYR113     -0.0201
     86  CD1      -75.1910   36.5580   -3.9280 C.ar  113  TYR113     -0.0009
     87  CD2      -75.0730   38.8620   -3.3120 C.ar  113  TYR113     -0.0009
     88  CE1      -76.4970   36.7330   -4.3600 C.ar  113  TYR113      0.0417
     89  CE2      -76.3850   39.0500   -3.7450 C.ar  113  TYR113      0.0417
     90  CZ       -77.0910   37.9800   -4.2680 C.ar  113  TYR113      0.1957
     91  OH       -78.3900   38.1450   -4.7030 O.3   113  TYR113     -0.2866
     92  N        -88.8790   39.7560   -2.3600 N.3   248  ARG248     -0.1231
     93  CA       -88.0340   39.9180   -3.5170 C.3   248  ARG248      0.1694
     94  C        -88.0260   41.3820   -3.9690 C.2   248  ARG248      0.2593
     95  O        -89.0180   42.0940   -3.7990 O.2   248  ARG248     -0.2718
     96  CB       -88.6160   38.9980   -4.5940 C.3   248  ARG248      0.0321
     97  CG       -87.6620   38.3610   -5.5520 C.3   248  ARG248      0.0489
     98  CD       -86.5820   37.4960   -4.9000 C.3   248  ARG248      0.2205
     99  NE       -85.4100   37.5850   -5.7700 N.pl3 248  ARG248     -0.0865
    100  CZ       -85.3060   36.9480   -6.9300 C.cat 248  ARG248      0.5346
    101  NH1      -86.2880   36.1550   -7.3400 N.pl3 248  ARG248      0.1354
    102  NH2      -84.2660   37.1600   -7.7150 N.pl3 248  ARG248      0.1354
    103  N        -86.8970   41.8470   -4.4950 N.am  249  GLY249     -0.1942
    104  CA       -86.8160   43.2030   -5.0060 C.3   249  GLY249      0.2014
    105  C        -86.5740   44.3620   -4.0570 C.2   249  GLY249      0.2640
    106  O        -86.6690   45.5290   -4.4600 O.2   249  GLY249     -0.2714
    107  N        -86.2300   44.0660   -2.8110 N.am  250  SER250     -0.1935
    108  CA       -86.0120   45.1230   -1.8410 C.3   250  SER250      0.2055
    109  C        -84.9320   46.1470   -2.1840 C.2   250  SER250      0.2643
    110  O        -85.1180   47.3470   -1.9450 O.2   250  SER250     -0.2714
    111  CB       -85.7090   44.5220   -0.4790 C.3   250  SER250      0.2130
    112  OG       -86.8190   43.7900   -0.0170 O.3   250  SER250     -0.2179
    113  N        -83.8090   45.7060   -2.7440 N.am  251  ALA251     -0.1963
    114  CA       -82.7590   46.6710   -3.0320 C.3   251  ALA251      0.1728
    115  C        -83.1860   47.6950   -4.0930 C.2   251  ALA251      0.2616
    116  O        -82.9110   48.8860   -3.9530 O.2   251  ALA251     -0.2715
    117  CB       -81.4710   45.9510   -3.4250 C.3   251  ALA251      0.0334
    118  N        -83.8710   47.2410   -5.1410 N.am  252  ALA252     -0.1977
    119  CA       -84.3610   48.1500   -6.1910 C.3   252  ALA252      0.1597
    120  C        -85.3430   49.1710   -5.5800 C.2   252  ALA252      0.2287
    121  O        -85.2250   50.3790   -5.7990 O.2   252  ALA252     -0.2864
    122  CB       -85.0580   47.3550   -7.2920 C.3   252  ALA252      0.0319
    123  N        -83.5570   51.7710   -3.1270 N.3   255  GLU255     -0.1245
    124  CA       -82.8260   52.8050   -3.8580 C.3   255  GLU255      0.1567
    125  C        -83.7770   53.7540   -4.5860 C.2   255  GLU255      0.2260
    126  O        -83.5370   54.9730   -4.6770 O.2   255  GLU255     -0.2867
    127  CB       -81.8760   52.1570   -4.8710 C.3   255  GLU255      0.0388
    128  CG       -81.0620   53.1430   -5.6800 C.3   255  GLU255      0.1160
    129  CD       -80.0430   52.4560   -6.5690 C.2   255  GLU255      0.3649
    130  OE1      -79.4430   53.1330   -7.4270 O.co2 255  GLU255     -0.2457
    131  OE2      -79.8400   51.2360   -6.4080 O.co2 255  GLU255     -0.2457
    132  N        -72.2690   48.4190   -4.2710 N.3   277  VAL277     -0.1231
    133  CA       -73.6320   47.8970   -4.3250 C.3   277  VAL277      0.1692
    134  C        -74.3630   48.3900   -3.0740 C.2   277  VAL277      0.2593
    135  O        -74.2200   47.8050   -2.0010 O.2   277  VAL277     -0.2718
    136  CB       -73.6230   46.3630   -4.3380 C.3   277  VAL277      0.0266
    137  CG1      -75.0330   45.8270   -4.5220 C.3   277  VAL277      0.0020
    138  CG2      -72.7180   45.8760   -5.4380 C.3   277  VAL277      0.0020
    139  N        -75.1280   49.4710   -3.2320 N.am  278  SER278     -0.1938
    140  CA       -75.8850   50.1280   -2.1570 C.3   278  SER278      0.2055
    141  C        -76.4050   49.2800   -0.9990 C.2   278  SER278      0.2643
    142  O        -75.9900   49.4620    0.1410 O.2   278  SER278     -0.2714
    143  CB       -77.0570   50.9200   -2.7530 C.3   278  SER278      0.2130
    144  OG       -77.8730   50.1010   -3.5800 O.3   278  SER278     -0.2179
    145  N        -77.3190   48.3630   -1.2750 N.am  279  ASP279     -0.1971
    146  CA       -77.8800   47.5360   -0.2120 C.3   279  ASP279      0.1709
    147  C        -76.8250   46.7730    0.5840 C.2   279  ASP279      0.2293
    148  O        -76.8840   46.7140    1.8140 O.2   279  ASP279     -0.2864
    149  CB       -78.8960   46.5550   -0.7940 C.3   279  ASP279      0.1436
    150  CG       -78.3580   45.8150   -1.9930 C.2   279  ASP279      0.3671
    151  OD1      -78.3760   44.5710   -1.9770 O.co2 279  ASP279     -0.2456
    152  OD2      -77.9210   46.4860   -2.9590 O.co2 279  ASP279     -0.2456
@<TRIPOS>BOND
     1    15    16    1
     2    20    21    1
     3    20    19    1
     4    21    23   ar
     5    21    22   ar
     6    16    19    1
     7    16    17    1
     8    17    18    2
     9    17    24   am
    10    24    25    1
    11    26    25    1
    12    26    27    2
    13    30    29    2
    14    32    33    1
    15    25    28    1
    16    28    29    1
    17    29    31   am
    18    33    36    1
    19    33    34    1
    20    36    37    1
    21    44    34   am
    22    44    45    1
    23    34    35    2
    24    46    45    1
    25    46    47    2
    26    48    45    1
    27    48    49    1
    28    37    38   ar
    29    37    39   ar
    30    50    51    1
    31    38    40   ar
    32    39    41   ar
    33    40    42   ar
    34    51    52    1
    35    51    54    1
    36    52    53    2
    37    41    42   ar
    38     9     6    1
    39    54    55    1
    40    42    43    1
    41    61    60    2
    42     6     5    1
    43     6     7    1
    44    68    66    1
    45    60    59    1
    46     5     3   am
    47    55    56    1
    48    66    65    2
    49    66    67    1
    50    65    64    1
    51    59    58    1
    52    59    62    1
    53     3     4    2
    54     3     2    1
    55     1     2    1
    56    10     7   am
    57    10    11    1
    58     7     8    2
    59    56    57    1
    60    64    63    1
    61    14    11    1
    62    11    12    1
    63    12    13    2
    64    62    63    1
    65    77    79   ar
    66    77    75   ar
    67    79    78   ar
    68    75    74   ar
    69    78    76   ar
    70    74    76   ar
    71    74    73    1
    72   102   100    1
    73    73    70    1
    74   130   129   ar
    75   101   100    1
    76   122   119    1
    77   100    99    2
    78   129   131   ar
    79   129   128    1
    80   119   120    1
    81   119   118    1
    82    70    69    1
    83    70    71    1
    84   121   120    2
    85    99    98    1
    86   128   127    1
    87    71    72    2
    88    97    98    1
    89    97    96    1
    90   138   136    1
    91    80    81    1
    92   118   115   am
    93   104   103    1
    94   104   105    1
    95   127   124    1
    96    91    90    1
    97   126   125    2
    98    96    93    1
    99   125   124    1
   100   137   136    1
   101   103    94   am
   102   106   105    2
   103    88    90   ar
   104    88    86   ar
   105   136   133    1
   106   133   132    1
   107   133   134    1
   108    90    89   ar
   109   115   116    2
   110   115   114    1
   111   105   107   am
   112    81    82    1
   113    81    84    1
   114    94    95    2
   115    94    93    1
   116    86    85   ar
   117   124   123    1
   118    89    87   ar
   119   144   143    1
   120    93    92    1
   121    82    83    2
   122   117   114    1
   123    85    87   ar
   124    85    84    1
   125   139   134   am
   126   139   140    1
   127   134   135    2
   128   114   113    1
   129   152   150   ar
   130   107   108    1
   131   143   140    1
   132   113   109   am
   133   109   110    2
   134   109   108    1
   135   140   141    1
   136   150   151   ar
   137   150   149    1
   138   108   111    1
   139   145   141   am
   140   145   146    1
   141   141   142    2
   142   149   146    1
   143   111   112    1
   144   146   147    1
   145   147   148    2
