@<TRIPOS>MOLECULE
tmp/2nunA01.pdb
 113 107 0 0 0
SMALL
GASTEIGER

@<TRIPOS>ATOM
      1  N        -71.4090   45.0080   -9.2280 N.3    35  TRP35      -0.1241
      2  CA       -70.4940   44.2780   -8.3680 C.3    35  TRP35       0.1605
      3  C        -69.0370   44.5590   -8.7500 C.2    35  TRP35       0.2264
      4  O        -68.6920   44.6230   -9.9330 O.2    35  TRP35      -0.2867
      5  CB       -70.7690   42.7800   -8.4620 C.3    35  TRP35       0.0550
      6  CG       -72.0990   42.4020   -7.9430 C.ar   35  TRP35       0.0003
      7  CD1      -73.2260   42.1450   -8.6720 C.ar   35  TRP35       0.0946
      8  CD2      -72.4670   42.2600   -6.5680 C.ar   35  TRP35       0.0152
      9  NE1      -74.2750   41.8500   -7.8320 N.ar   35  TRP35      -0.2442
     10  CE2      -73.8360   41.9150   -6.5350 C.ar   35  TRP35       0.0810
     11  CE3      -71.7720   42.3940   -5.3590 C.ar   35  TRP35       0.0012
     12  CZ2      -74.5250   41.6980   -5.3380 C.ar   35  TRP35       0.0191
     13  CZ3      -72.4510   42.1810   -4.1720 C.ar   35  TRP35       0.0001
     14  CH2      -73.8180   41.8360   -4.1690 C.ar   35  TRP35       0.0015
     15  N        -79.4910   34.5440    2.1620 N.3   107  THR107     -0.1218
     16  CA       -78.8180   34.7340    0.8840 C.3   107  THR107      0.1862
     17  C        -77.4480   34.0520    0.9260 C.2   107  THR107      0.2287
     18  O        -76.5120   34.5530    1.5570 O.2   107  THR107     -0.2866
     19  CB       -78.5880   36.2240    0.5500 C.3   107  THR107      0.1770
     20  OG1      -79.8460   36.8640    0.3090 O.3   107  THR107     -0.2211
     21  CG2      -77.7140   36.3580   -0.6930 C.3   107  THR107      0.0375
     22  N        -72.3210   37.1150   -5.2680 N.3   113  TYR113     -0.1241
     23  CA       -71.9850   37.7650   -4.0010 C.3   113  TYR113      0.1605
     24  C        -70.5940   37.4410   -3.4570 C.2   113  TYR113      0.2264
     25  O        -70.2370   37.8740   -2.3610 O.2   113  TYR113     -0.2867
     26  CB       -73.0310   37.4150   -2.9410 C.3   113  TYR113      0.0534
     27  CG       -74.4580   37.6140   -3.3980 C.ar  113  TYR113     -0.0201
     28  CD1      -75.1910   36.5580   -3.9280 C.ar  113  TYR113     -0.0009
     29  CD2      -75.0730   38.8620   -3.3120 C.ar  113  TYR113     -0.0009
     30  CE1      -76.4970   36.7330   -4.3600 C.ar  113  TYR113      0.0417
     31  CE2      -76.3850   39.0500   -3.7450 C.ar  113  TYR113      0.0417
     32  CZ       -77.0910   37.9800   -4.2680 C.ar  113  TYR113      0.1957
     33  OH       -78.3900   38.1450   -4.7030 O.3   113  TYR113     -0.2866
     34  N        -80.8250   37.3380    6.9110 N.3   199  HIS199     -0.1241
     35  CA       -81.4850   38.6290    6.8970 C.3   199  HIS199      0.1621
     36  C        -82.3340   38.9610    8.1060 C.2   199  HIS199      0.2264
     37  O        -82.6950   38.0910    8.8980 O.2   199  HIS199     -0.2867
     38  CB       -82.3130   38.7490    5.6230 C.3   199  HIS199      0.0745
     39  CG       -81.4860   38.7130    4.3810 C.ar  199  HIS199      0.0817
     40  ND1      -80.4870   39.6310    4.1340 N.ar  199  HIS199     -0.2268
     41  CD2      -81.4930   37.8690    3.3240 C.ar  199  HIS199      0.1154
     42  CE1      -79.9150   39.3530    2.9750 C.ar  199  HIS199      0.1986
     43  NE2      -80.5070   38.2890    2.4650 N.ar  199  HIS199     -0.2212
     44  N        -83.1050   49.2070    2.9380 N.3   241  ALA241     -0.1245
     45  CA       -82.2750   48.1500    2.3690 C.3   241  ALA241      0.1562
     46  C        -81.9580   47.1040    3.4250 C.2   241  ALA241      0.2260
     47  O        -82.0470   45.9100    3.1550 O.2   241  ALA241     -0.2867
     48  CB       -80.9890   48.7340    1.8070 C.3   241  ALA241      0.0290
     49  N        -85.0750   44.9160    4.2610 N.3   244  MET244     -0.1245
     50  CA       -85.4240   43.9870    3.1920 C.3   244  MET244      0.1570
     51  C        -86.8940   43.6100    3.4230 C.2   244  MET244      0.2261
     52  O        -87.2250   42.4560    3.6800 O.2   244  MET244     -0.2867
     53  CB       -84.5320   42.7360    3.2430 C.3   244  MET244      0.0387
     54  CG       -84.5080   41.9530    1.9270 C.3   244  MET244      0.0595
     55  SD       -83.5680   40.3970    1.9430 S.3   244  MET244     -0.1393
     56  CE       -84.8800   39.1980    2.0470 C.3   244  MET244      0.0692
     57  N        -88.8790   39.7560   -2.3600 N.3   248  ARG248     -0.1231
     58  CA       -88.0340   39.9180   -3.5170 C.3   248  ARG248      0.1694
     59  C        -88.0260   41.3820   -3.9690 C.2   248  ARG248      0.2593
     60  O        -89.0180   42.0940   -3.7990 O.2   248  ARG248     -0.2718
     61  CB       -88.6160   38.9980   -4.5940 C.3   248  ARG248      0.0321
     62  CG       -87.6620   38.3610   -5.5520 C.3   248  ARG248      0.0489
     63  CD       -86.5820   37.4960   -4.9000 C.3   248  ARG248      0.2205
     64  NE       -85.4100   37.5850   -5.7700 N.pl3 248  ARG248     -0.0865
     65  CZ       -85.3060   36.9480   -6.9300 C.cat 248  ARG248      0.5346
     66  NH1      -86.2880   36.1550   -7.3400 N.pl3 248  ARG248      0.1354
     67  NH2      -84.2660   37.1600   -7.7150 N.pl3 248  ARG248      0.1354
     68  N        -86.8970   41.8470   -4.4950 N.am  249  GLY249     -0.1942
     69  CA       -86.8160   43.2030   -5.0060 C.3   249  GLY249      0.2014
     70  C        -86.5740   44.3620   -4.0570 C.2   249  GLY249      0.2640
     71  O        -86.6690   45.5290   -4.4600 O.2   249  GLY249     -0.2714
     72  N        -86.2300   44.0660   -2.8110 N.am  250  SER250     -0.1935
     73  CA       -86.0120   45.1230   -1.8410 C.3   250  SER250      0.2055
     74  C        -84.9320   46.1470   -2.1840 C.2   250  SER250      0.2642
     75  O        -85.1180   47.3470   -1.9450 O.2   250  SER250     -0.2714
     76  CB       -85.7090   44.5220   -0.4790 C.3   250  SER250      0.2130
     77  OG       -86.8190   43.7900   -0.0170 O.3   250  SER250     -0.2179
     78  N        -83.8090   45.7060   -2.7440 N.am  251  ALA251     -0.1977
     79  CA       -82.7590   46.6710   -3.0320 C.3   251  ALA251      0.1597
     80  C        -83.1860   47.6950   -4.0930 C.2   251  ALA251      0.2287
     81  O        -82.9110   48.8860   -3.9530 O.2   251  ALA251     -0.2864
     82  CB       -81.4710   45.9510   -3.4250 C.3   251  ALA251      0.0319
     83  N        -72.2690   48.4190   -4.2710 N.3   277  VAL277     -0.1245
     84  CA       -73.6320   47.8970   -4.3250 C.3   277  VAL277      0.1561
     85  C        -74.3630   48.3900   -3.0740 C.2   277  VAL277      0.2260
     86  O        -74.2200   47.8050   -2.0010 O.2   277  VAL277     -0.2867
     87  CB       -73.6230   46.3630   -4.3380 C.3   277  VAL277      0.0252
     88  CG1      -75.0330   45.8270   -4.5220 C.3   277  VAL277      0.0019
     89  CG2      -72.7180   45.8760   -5.4380 C.3   277  VAL277      0.0019
     90  N        -77.3190   48.3630   -1.2750 N.3   279  ASP279     -0.1225
     91  CA       -77.8800   47.5360   -0.2120 C.3   279  ASP279      0.1805
     92  C        -76.8250   46.7730    0.5840 C.2   279  ASP279      0.2597
     93  O        -76.8840   46.7140    1.8140 O.2   279  ASP279     -0.2718
     94  CB       -78.8960   46.5550   -0.7940 C.3   279  ASP279      0.1424
     95  CG       -78.3580   45.8150   -1.9930 C.2   279  ASP279      0.3668
     96  OD1      -78.3760   44.5710   -1.9770 O.co2 279  ASP279     -0.2456
     97  OD2      -77.9210   46.4860   -2.9590 O.co2 279  ASP279     -0.2456
     98  N        -75.8710   46.1780   -0.1230 N.am  280  ILE280     -0.1980
     99  CA       -74.8030   45.4310    0.5200 C.3   280  ILE280      0.1595
    100  C        -73.9380   46.3690    1.3630 C.2   280  ILE280      0.2287
    101  O        -73.5570   46.0220    2.4810 O.2   280  ILE280     -0.2864
    102  CB       -73.9570   44.6840   -0.5410 C.3   280  ILE280      0.0276
    103  CG1      -74.7780   43.5240   -1.1080 C.3   280  ILE280      0.0022
    104  CG2      -72.6760   44.1480    0.0690 C.3   280  ILE280      0.0022
    105  CD1      -75.0840   42.4360   -0.0920 C.3   280  ILE280      0.0001
    106  N        -76.0240   46.8960    4.4220 N.3   283  MET283     -0.1245
    107  CA       -76.0740   45.7370    5.3070 C.3   283  MET283      0.1570
    108  C        -74.7760   45.4970    6.0710 C.2   283  MET283      0.2261
    109  O        -74.7860   44.9230    7.1610 O.2   283  MET283     -0.2867
    110  CB       -76.4240   44.4840    4.5150 C.3   283  MET283      0.0387
    111  CG       -77.7710   44.5530    3.8550 C.3   283  MET283      0.0595
    112  SD       -78.2090   43.0070    3.0840 S.3   283  MET283     -0.1393
    113  CE       -79.9080   42.8120    3.6300 C.3   283  MET283      0.0692
@<TRIPOS>BOND
     1     4     3    2
     2     1     2    1
     3     3     2    1
     4     7     6   ar
     5     7     9   ar
     6     5     2    1
     7     5     6    1
     8     6     8   ar
     9     9    10   ar
    10    67    65    1
    11    66    65    1
    12    65    64    2
    13     8    10   ar
    14     8    11   ar
    15    10    12   ar
    16    64    63    1
    17    62    63    1
    18    62    61    1
    19    89    87    1
    20    11    13   ar
    21    12    14   ar
    22    22    23    1
    23    69    68    1
    24    69    70    1
    25    33    32    1
    26    61    58    1
    27    88    87    1
    28    68    59   am
    29    71    70    2
    30    30    32   ar
    31    30    28   ar
    32    87    84    1
    33    84    83    1
    34    84    85    1
    35    32    31   ar
    36    13    14   ar
    37    80    81    2
    38    80    79    1
    39    70    72   am
    40    23    24    1
    41    23    26    1
    42    59    60    2
    43    59    58    1
    44    28    27   ar
    45    31    29   ar
    46    58    57    1
    47    24    25    2
    48    82    79    1
    49    27    29   ar
    50    27    26    1
    51    85    86    2
    52    79    78    1
    53    97    95   ar
    54    72    73    1
    55    78    74   am
    56    74    75    2
    57    74    73    1
    58    95    96   ar
    59    95    94    1
    60    73    76    1
    61    90    91    1
    62   103   102    1
    63   103   105    1
    64    94    91    1
    65    21    19    1
    66   102   104    1
    67   102    99    1
    68    76    77    1
    69    91    92    1
    70    98    99    1
    71    98    92   am
    72    20    19    1
    73    99   100    1
    74    19    16    1
    75    92    93    2
    76    16    17    1
    77    16    15    1
    78    17    18    2
    79   100   101    2
    80    48    45    1
    81    54    55    1
    82    54    53    1
    83    55    56    1
    84    45    44    1
    85    45    46    1
    86    43    42   ar
    87    43    41   ar
    88    42    40   ar
    89   112   113    1
    90   112   111    1
    91    47    46    2
    92    50    53    1
    93    50    51    1
    94    50    49    1
    95    41    39   ar
    96    51    52    2
    97   111   110    1
    98    40    39   ar
    99    39    38    1
   100   106   107    1
   101   110   107    1
   102   107   108    1
   103    38    35    1
   104   108   109    2
   105    35    34    1
   106    35    36    1
   107    36    37    2
