@<TRIPOS>MOLECULE
tmp/2nuuH01.pdb
 93 87 0 0 0
SMALL
GASTEIGER

@<TRIPOS>ATOM
      1  N         34.2330   22.1700  -11.8600 N.3     3  LEU3       -0.1245
      2  CA        33.9760   22.1480  -10.4250 C.3     3  LEU3        0.1561
      3  C         33.9090   20.6930   -9.9890 C.2     3  LEU3        0.2260
      4  O         33.1740   19.8830  -10.5650 O.2     3  LEU3       -0.2867
      5  CB        32.6770   22.8700  -10.0530 C.3     3  LEU3        0.0270
      6  CG        32.3780   22.9700   -8.5520 C.3     3  LEU3        0.0019
      7  CD1       33.2810   24.0020   -7.8710 C.3     3  LEU3        0.0001
      8  CD2       30.9240   23.3120   -8.3310 C.3     3  LEU3        0.0001
      9  N         46.9550   22.4900   -4.9150 N.3    25  ILE25      -0.1245
     10  CA        45.5660   22.9240   -4.7980 C.3    25  ILE25       0.1561
     11  C         45.2990   23.1870   -3.3110 C.2    25  ILE25       0.2260
     12  O         45.0920   22.2610   -2.5210 O.2    25  ILE25      -0.2867
     13  CB        44.5760   21.8980   -5.4390 C.3    25  ILE25       0.0252
     14  CG1       44.7450   21.8900   -6.9670 C.3    25  ILE25       0.0019
     15  CG2       43.1280   22.2060   -5.0570 C.3    25  ILE25       0.0019
     16  CD1       44.0640   20.7350   -7.6890 C.3    25  ILE25       0.0001
     17  N         43.1380   26.0790   -2.3380 N.3    27  GLY27      -0.1210
     18  CA        41.8120   26.6780   -2.2280 C.3    27  GLY27       0.1956
     19  C         40.6600   25.7000   -2.3710 C.2    27  GLY27       0.2612
     20  O         40.5700   24.9720   -3.3710 O.2    27  GLY27      -0.2717
     21  N         39.7730   25.6990   -1.3710 N.am   28  LEU28      -0.1965
     22  CA        38.6060   24.8140   -1.3490 C.3    28  LEU28       0.1728
     23  C         37.5520   25.2420   -0.3260 C.2    28  LEU28       0.2616
     24  O         37.8680   25.8710    0.6820 O.2    28  LEU28      -0.2715
     25  CB        39.0390   23.3550   -1.0910 C.3    28  LEU28       0.0311
     26  CG        39.9640   23.0580    0.0950 C.3    28  LEU28       0.0022
     27  CD1       39.1750   22.8490    1.3800 C.3    28  LEU28       0.0001
     28  CD2       40.8190   21.8390   -0.1930 C.3    28  LEU28       0.0001
     29  N         36.3040   24.8710   -0.5980 N.am   29  THR29      -0.1951
     30  CA        35.1700   25.1670    0.2780 C.3    29  THR29       0.1897
     31  C         34.6050   23.8570    0.8510 C.2    29  THR29       0.2313
     32  O         34.3640   22.8950    0.1060 O.2    29  THR29      -0.2863
     33  CB        34.0600   25.9480   -0.4700 C.3    29  THR29       0.1794
     34  OG1       34.5450   27.2530   -0.8200 O.3    29  THR29      -0.2208
     35  CG2       32.8200   26.0960    0.3940 C.3    29  THR29       0.0378
     36  N         33.9920   21.4820   -2.1610 N.3    62  ASP62      -0.1225
     37  CA        33.7190   22.1380   -3.4240 C.3    62  ASP62       0.1805
     38  C         35.0520   22.7430   -3.8350 C.2    62  ASP62       0.2598
     39  O         35.6280   23.5370   -3.0860 O.2    62  ASP62      -0.2718
     40  CB        32.6600   23.2270   -3.2690 C.3    62  ASP62       0.1424
     41  CG        31.2860   22.6710   -2.9100 C.2    62  ASP62       0.3668
     42  OD1       30.6660   21.9990   -3.7710 O.co2  62  ASP62      -0.2456
     43  OD2       30.8240   22.9230   -1.7670 O.co2  62  ASP62      -0.2456
     44  N         35.5630   22.3320   -4.9950 N.am   63  VAL63      -0.1966
     45  CA        36.8490   22.8360   -5.4910 C.3    63  VAL63       0.1727
     46  C         36.8750   23.1530   -6.9970 C.2    63  VAL63       0.2616
     47  O         36.7970   22.2490   -7.8340 O.2    63  VAL63      -0.2715
     48  CB        38.0280   21.8840   -5.1120 C.3    63  VAL63       0.0290
     49  CG1       37.8490   20.4870   -5.7340 C.3    63  VAL63       0.0023
     50  CG2       39.3700   22.4920   -5.5080 C.3    63  VAL63       0.0023
     51  N         37.0000   24.4370   -7.3270 N.am   64  ALA64      -0.1977
     52  CA        37.0710   24.8820   -8.7180 C.3    64  ALA64       0.1597
     53  C         38.5060   24.6910   -9.1940 C.2    64  ALA64       0.2287
     54  O         39.4460   25.1660   -8.5540 O.2    64  ALA64      -0.2864
     55  CB        36.6620   26.3350   -8.8340 C.3    64  ALA64       0.0319
     56  N         37.6080   36.2480   -8.9900 N.3   101  ARG101     -0.1231
     57  CA        38.1240   36.5550   -7.6630 C.3   101  ARG101      0.1694
     58  C         37.6740   37.9800   -7.3320 C.2   101  ARG101      0.2592
     59  O         38.0120   38.9270   -8.0460 O.2   101  ARG101     -0.2718
     60  CB        39.6480   36.4180   -7.6170 C.3   101  ARG101      0.0321
     61  CG        40.2930   37.0040   -6.3690 C.3   101  ARG101      0.0489
     62  CD        41.3000   36.0500   -5.7660 C.3   101  ARG101      0.2205
     63  NE        42.4380   35.7870   -6.6400 N.pl3 101  ARG101     -0.0865
     64  CZ        43.2230   34.7150   -6.5470 C.cat 101  ARG101      0.5346
     65  NH1       42.9920   33.7850   -5.6230 N.pl3 101  ARG101      0.1354
     66  NH2       44.2320   34.5580   -7.3910 N.pl3 101  ARG101      0.1354
     67  N         36.8950   38.1080   -6.2590 N.am  102  ILE102     -0.1966
     68  CA        36.3430   39.3910   -5.8110 C.3   102  ILE102      0.1727
     69  C         37.3950   40.4550   -5.4420 C.2   102  ILE102      0.2616
     70  O         37.2730   41.6200   -5.8390 O.2   102  ILE102     -0.2715
     71  CB        35.3110   39.1700   -4.6650 C.3   102  ILE102      0.0290
     72  CG1       34.1310   38.3370   -5.1880 C.3   102  ILE102      0.0022
     73  CG2       34.8210   40.5000   -4.0870 C.3   102  ILE102      0.0023
     74  CD1       33.2540   37.7500   -4.1190 C.3   102  ILE102      0.0001
     75  N         38.4220   40.0420   -4.7040 N.am  103  ARG103     -0.1977
     76  CA        39.4940   40.9360   -4.2620 C.3   103  ARG103      0.1597
     77  C         40.2470   41.6460   -5.3940 C.2   103  ARG103      0.2287
     78  O         40.5740   42.8300   -5.2700 O.2   103  ARG103     -0.2864
     79  CB        40.4740   40.1720   -3.3600 C.3   103  ARG103      0.0334
     80  CG        41.8800   40.7650   -3.2880 C.3   103  ARG103      0.0492
     81  CD        42.7570   40.0380   -2.2860 C.3   103  ARG103      0.2205
     82  NE        42.9530   38.6340   -2.6350 N.pl3 103  ARG103     -0.0865
     83  CZ        44.0740   38.1260   -3.1370 C.cat 103  ARG103      0.5346
     84  NH1       44.1390   36.8300   -3.4170 N.pl3 103  ARG103      0.1354
     85  NH2       45.1290   38.9050   -3.3530 N.pl3 103  ARG103      0.1354
     86  N         41.5570   31.5470   -9.2800 N.3   112  LEU112     -0.1245
     87  CA        41.7830   30.4730   -8.3080 C.3   112  LEU112      0.1561
     88  C         43.0180   30.7100   -7.4380 C.2   112  LEU112      0.2260
     89  O         43.3870   29.8730   -6.6160 O.2   112  LEU112     -0.2867
     90  CB        41.8950   29.1190   -9.0200 C.3   112  LEU112      0.0270
     91  CG        40.8120   28.7380  -10.0350 C.3   112  LEU112      0.0019
     92  CD1       41.1980   27.4690  -10.7930 C.3   112  LEU112      0.0001
     93  CD2       39.4520   28.5840   -9.3660 C.3   112  LEU112      0.0001
@<TRIPOS>BOND
     1     1     2    1
     2    92    91    1
     3     4     3    2
     4     2     5    1
     5     2     3    1
     6     5     6    1
     7    91    93    1
     8    91    90    1
     9    86    87    1
    10    53    52    1
    11    53    54    2
    12    90    87    1
    13    56    57    1
    14    55    52    1
    15    52    51    1
    16     6     8    1
    17     6     7    1
    18    87    88    1
    19    59    58    2
    20    47    46    2
    21    16    14    1
    22    57    60    1
    23    57    58    1
    24    60    61    1
    25    88    89    2
    26    66    64    1
    27    58    67   am
    28    51    46   am
    29    46    45    1
    30    14    13    1
    31    63    64    2
    32    63    62    1
    33    64    65    1
    34    61    62    1
    35    67    68    1
    36    70    69    2
    37    68    69    1
    38    68    71    1
    39    49    48    1
    40    50    48    1
    41    45    48    1
    42    45    44    1
    43    69    75   am
    44    13    15    1
    45    13    10    1
    46    77    78    2
    47    77    76    1
    48    72    71    1
    49    72    74    1
    50    44    38   am
    51     9    10    1
    52    10    11    1
    53    75    76    1
    54    71    73    1
    55    76    79    1
    56    38    37    1
    57    38    39    2
    58    42    41   ar
    59    37    40    1
    60    37    36    1
    61    84    83    1
    62    20    19    2
    63    79    80    1
    64    85    83    1
    65    11    12    2
    66    80    81    1
    67    40    41    1
    68    83    82    2
    69    41    43   ar
    70    82    81    1
    71    19    18    1
    72    19    21   am
    73    17    18    1
    74    21    22    1
    75    22    25    1
    76    22    23    1
    77    25    26    1
    78    34    33    1
    79    29    23   am
    80    29    30    1
    81    33    30    1
    82    33    35    1
    83    23    24    2
    84    28    26    1
    85    26    27    1
    86    32    31    2
    87    30    31    1
