@<TRIPOS>MOLECULE
tmp/2nv4A00.pdb
 172 167 0 0 0
SMALL
GASTEIGER

@<TRIPOS>ATOM
      1  N         14.3310   52.7410   27.8030 N.3    15  GLN15      -0.1245
      2  CA        15.5280   51.9180   27.7930 C.3    15  GLN15       0.1566
      3  C         16.3840   52.1480   29.0320 C.2    15  GLN15       0.2260
      4  O         17.1120   51.2600   29.4720 O.2    15  GLN15      -0.2867
      5  CB        16.3570   52.2160   26.5370 C.3    15  GLN15       0.0367
      6  CG        15.6360   51.9660   25.1990 C.3    15  GLN15       0.0905
      7  CD        14.8350   53.1710   24.6930 C.2    15  GLN15       0.2608
      8  OE1       13.8320   53.5740   25.2910 O.2    15  GLN15      -0.2717
      9  NE2       15.2840   53.7470   23.5810 N.am   15  GLN15      -0.0878
     10  N         14.6810   49.8520   32.1680 N.3    18  ALA18      -0.1231
     11  CA        14.6930   48.4000   32.1470 C.3    18  ALA18       0.1679
     12  C         16.0460   47.8230   32.5270 C.2    18  ALA18       0.2434
     13  O         17.0880   48.4310   32.2840 O.2    18  ALA18      -0.2733
     14  CB        14.2920   47.9070   30.7790 C.3    18  ALA18       0.0304
     15  N         16.0470   46.6320   33.1400 N.am   19  PRO19      -0.2718
     16  CA        17.3200   46.0220   33.5240 C.3    19  PRO19       0.1535
     17  C         18.0600   45.4730   32.3070 C.2    19  PRO19       0.2598
     18  O         17.4460   45.1180   31.2950 O.2    19  PRO19      -0.2715
     19  CB        16.8910   44.9240   34.4880 C.3    19  PRO19       0.0310
     20  CG        15.5830   44.4920   33.9170 C.3    19  PRO19       0.0237
     21  CD        14.9130   45.8080   33.5960 C.3    19  PRO19       0.0939
     22  N         19.3810   45.4370   32.4060 N.am   20  ARG20      -0.1964
     23  CA        20.2350   44.9160   31.3520 C.3    20  ARG20       0.1729
     24  C         19.7020   43.5370   30.9640 C.2    20  ARG20       0.2616
     25  O         19.4660   43.2450   29.7910 O.2    20  ARG20      -0.2715
     26  CB        21.6560   44.7990   31.8950 C.3    20  ARG20       0.0348
     27  CG        22.7180   44.3930   30.9040 C.3    20  ARG20       0.0492
     28  CD        24.0770   44.4590   31.5930 C.3    20  ARG20       0.2205
     29  NE        24.2490   45.7400   32.2820 N.pl3  20  ARG20      -0.0865
     30  CZ        25.3640   46.1290   32.8950 C.cat  20  ARG20       0.5346
     31  NH1       26.4300   45.3380   32.9150 N.pl3  20  ARG20       0.1354
     32  NH2       25.4100   47.3160   33.4860 N.pl3  20  ARG20       0.1354
     33  N         19.5230   42.6920   31.9710 N.am   21  GLN21      -0.1977
     34  CA        19.0030   41.3460   31.7810 C.3    21  GLN21       0.1601
     35  C         17.9320   41.0830   32.8320 C.2    21  GLN21       0.2287
     36  O         18.1880   41.1880   34.0310 O.2    21  GLN21      -0.2864
     37  CB        20.1320   40.3200   31.8970 C.3    21  GLN21       0.0394
     38  CG        21.0210   40.2410   30.6650 C.3    21  GLN21       0.0908
     39  CD        20.2470   39.8470   29.3990 C.2    21  GLN21       0.2608
     40  OE1       19.1010   39.3830   29.4720 O.2    21  GLN21      -0.2717
     41  NE2       20.8780   40.0140   28.2400 N.am   21  GLN21      -0.0878
     42  N          9.9790   38.6690   22.0930 N.3    54  TYR54      -0.1227
     43  CA         9.2360   39.8910   21.8740 C.3    54  TYR54       0.1736
     44  C          9.9910   40.7640   20.8910 C.2    54  TYR54       0.2595
     45  O         11.1310   40.4710   20.5340 O.2    54  TYR54      -0.2718
     46  CB         8.9880   40.6380   23.1950 C.3    54  TYR54       0.0548
     47  CG        10.2110   41.1760   23.9080 C.ar   54  TYR54      -0.0200
     48  CD1       10.9300   40.3780   24.8040 C.ar   54  TYR54      -0.0009
     49  CD2       10.6070   42.5070   23.7390 C.ar   54  TYR54      -0.0009
     50  CE1       12.0040   40.8930   25.5220 C.ar   54  TYR54       0.0417
     51  CE2       11.6780   43.0340   24.4500 C.ar   54  TYR54       0.0417
     52  CZ        12.3690   42.2230   25.3440 C.ar   54  TYR54       0.1957
     53  OH        13.4020   42.7430   26.0870 O.3    54  TYR54      -0.2866
     54  N          9.3470   41.8280   20.4350 N.am   55  TRP55      -0.1976
     55  CA         9.9800   42.7200   19.4810 C.3    55  TRP55       0.1640
     56  C         10.4340   44.0080   20.1700 C.2    55  TRP55       0.2290
     57  O          9.6370   44.6920   20.8150 O.2    55  TRP55      -0.2864
     58  CB         8.9960   43.0250   18.3540 C.3    55  TRP55       0.0576
     59  CG         9.5740   43.7570   17.2000 C.ar   55  TRP55       0.0006
     60  CD1        9.4140   45.0810   16.9060 C.ar   55  TRP55       0.0946
     61  CD2       10.3880   43.2090   16.1640 C.ar   55  TRP55       0.0152
     62  NE1       10.0770   45.3910   15.7430 N.ar   55  TRP55      -0.2442
     63  CE2       10.6870   44.2590   15.2670 C.ar   55  TRP55       0.0810
     64  CE3       10.8980   41.9320   15.9040 C.ar   55  TRP55       0.0012
     65  CZ2       11.4770   44.0670   14.1260 C.ar   55  TRP55       0.0191
     66  CZ3       11.6840   41.7420   14.7670 C.ar   55  TRP55       0.0001
     67  CH2       11.9640   42.8040   13.8960 C.ar   55  TRP55       0.0015
     68  N         10.9590   47.1810   19.5330 N.3    56  ASP56      -0.1225
     69  CA        10.5760   48.2250   18.5970 C.3    56  ASP56       0.1805
     70  C         11.4000   49.5070   18.5420 C.2    56  ASP56       0.2598
     71  O         11.4910   50.1170   17.4820 O.2    56  ASP56      -0.2718
     72  CB         9.0950   48.5800   18.8040 C.3    56  ASP56       0.1424
     73  CG         8.7550   48.8750   20.2570 C.2    56  ASP56       0.3668
     74  OD1        9.6760   49.1680   21.0460 O.co2  56  ASP56      -0.2456
     75  OD2        7.5580   48.8240   20.6040 O.co2  56  ASP56      -0.2456
     76  N         12.0000   49.9260   19.6510 N.am   57  LYS57      -0.1966
     77  CA        12.7880   51.1600   19.6250 C.3    57  LYS57       0.1728
     78  C         14.2620   50.8730   19.3790 C.2    57  LYS57       0.2616
     79  O         15.0890   51.7760   19.4470 O.2    57  LYS57      -0.2715
     80  CB        12.6650   51.9330   20.9480 C.3    57  LYS57       0.0311
     81  CG        11.2670   52.0370   21.5230 C.3    57  LYS57       0.0038
     82  CD        10.3520   52.8960   20.6940 C.3    57  LYS57       0.0206
     83  CE         9.0190   53.0380   21.4030 C.3    57  LYS57       0.1093
     84  NZ         8.0920   53.9680   20.7000 N.3    57  LYS57      -0.1314
     85  N         14.5940   49.6200   19.0990 N.am   58  ALA58      -0.1977
     86  CA        15.9830   49.2500   18.8620 C.3    58  ALA58       0.1597
     87  C         16.3910   49.5480   17.4240 C.2    58  ALA58       0.2287
     88  O         15.5660   49.4840   16.5130 O.2    58  ALA58      -0.2864
     89  CB        16.1860   47.7730   19.1710 C.3    58  ALA58       0.0319
     90  N         23.9280   40.1200   23.3230 N.3    80  ARG80      -0.1231
     91  CA        22.5040   40.1160   23.6020 C.3    80  ARG80       0.1694
     92  C         21.9950   41.5500   23.4330 C.2    80  ARG80       0.2593
     93  O         20.9140   41.8940   23.9060 O.2    80  ARG80      -0.2718
     94  CB        22.2510   39.6450   25.0370 C.3    80  ARG80       0.0321
     95  CG        22.8910   38.2960   25.3730 C.3    80  ARG80       0.0489
     96  CD        22.2460   37.1270   24.6120 C.3    80  ARG80       0.2205
     97  NE        20.8780   36.8470   25.0510 N.pl3  80  ARG80      -0.0865
     98  CZ        20.4290   35.6400   25.3950 C.cat  80  ARG80       0.5346
     99  NH1       21.2420   34.5900   25.3580 N.pl3  80  ARG80       0.1354
    100  NH2       19.1660   35.4760   25.7650 N.pl3  80  ARG80       0.1354
    101  N         22.7790   42.3820   22.7490 N.am   81  SER81      -0.1939
    102  CA        22.4020   43.7770   22.5490 C.3    81  SER81       0.2040
    103  C         21.0730   43.9350   21.8420 C.2    81  SER81       0.2485
    104  O         20.7290   43.1600   20.9500 O.2    81  SER81      -0.2729
    105  CB        23.4660   44.5300   21.7500 C.3    81  SER81       0.2129
    106  OG        23.4410   44.1520   20.3890 O.3    81  SER81      -0.2179
    107  N         20.2970   44.9470   22.2410 N.am   82  PRO82      -0.2726
    108  CA        18.9990   45.1760   21.6060 C.3    82  PRO82       0.1402
    109  C         19.0890   45.4760   20.1060 C.2    82  PRO82       0.2269
    110  O         18.2280   45.0410   19.3380 O.2    82  PRO82      -0.2865
    111  CB        18.4080   46.3340   22.4210 C.3    82  PRO82       0.0296
    112  CG        19.6040   46.9790   23.0670 C.3    82  PRO82       0.0237
    113  CD        20.4680   45.8120   23.4200 C.3    82  PRO82       0.0939
    114  N         20.1680   45.0620   16.3600 N.3    84  ARG84      -0.1245
    115  CA        20.5150   43.9680   15.4620 C.3    84  ARG84       0.1563
    116  C         19.5000   44.0580   14.3380 C.2    84  ARG84       0.2260
    117  O         18.4320   44.6560   14.5060 O.2    84  ARG84      -0.2867
    118  CB        20.3820   42.6160   16.1830 C.3    84  ARG84       0.0307
    119  CG        18.9850   42.3490   16.7300 C.3    84  ARG84       0.0489
    120  CD        18.9580   41.2110   17.7490 C.3    84  ARG84       0.2205
    121  NE        19.9990   41.3830   18.7510 N.pl3  84  ARG84      -0.0865
    122  CZ        21.1040   40.6470   18.8030 C.cat  84  ARG84       0.5346
    123  NH1       21.3000   39.6770   17.9170 N.pl3  84  ARG84       0.1354
    124  NH2       22.0360   40.9070   19.7120 N.pl3  84  ARG84       0.1354
    125  N         14.7510   40.9210   18.0490 N.3    88  ILE88      -0.1231
    126  CA        13.8840   40.0080   18.7660 C.3    88  ILE88       0.1692
    127  C         14.4430   39.8400   20.1790 C.2    88  ILE88       0.2593
    128  O         15.5740   39.4010   20.3550 O.2    88  ILE88      -0.2718
    129  CB        13.8200   38.6160   18.0830 C.3    88  ILE88       0.0266
    130  CG1       13.3730   38.7640   16.6240 C.3    88  ILE88       0.0019
    131  CG2       12.8470   37.7160   18.8310 C.3    88  ILE88       0.0020
    132  CD1       13.3280   37.4660   15.8580 C.3    88  ILE88       0.0001
    133  N         13.6560   40.2130   21.1830 N.am   89  GLY89      -0.1942
    134  CA        14.0930   40.0440   22.5550 C.3    89  GLY89       0.2014
    135  C         13.7920   38.6170   22.9900 C.2    89  GLY89       0.2639
    136  O         12.6850   38.1230   22.7710 O.2    89  GLY89      -0.2714
    137  N         14.7740   37.9580   23.5980 N.am   90  LEU90      -0.1963
    138  CA        14.6300   36.5780   24.0530 C.3    90  LEU90       0.1728
    139  C         14.8540   36.4570   25.5620 C.2    90  LEU90       0.2616
    140  O         15.9390   36.7580   26.0560 O.2    90  LEU90      -0.2715
    141  CB        15.6390   35.6930   23.3270 C.3    90  LEU90       0.0311
    142  CG        15.6580   34.2010   23.6760 C.3    90  LEU90       0.0022
    143  CD1       14.3920   33.5450   23.1560 C.3    90  LEU90       0.0001
    144  CD2       16.8890   33.5500   23.0550 C.3    90  LEU90       0.0001
    145  N         13.8280   36.0060   26.2820 N.am   91  CYS91      -0.1968
    146  CA        13.9020   35.8430   27.7320 C.3    91  CYS91       0.1712
    147  C         13.2690   34.5480   28.1910 C.2    91  CYS91       0.2296
    148  O         12.2700   34.0930   27.6310 O.2    91  CYS91      -0.2864
    149  CB        13.1430   36.9530   28.4710 C.3    91  CYS91       0.0983
    150  SG        13.7780   38.5910   28.3150 S.3    91  CYS91      -0.0798
    151  N         12.4490   41.4730   30.4180 N.3   109  ASP109     -0.1239
    152  CA        13.0250   42.8160   30.4420 C.3   109  ASP109      0.1674
    153  C         12.5550   43.6670   29.2700 C.2   109  ASP109      0.2266
    154  O         13.3150   44.4720   28.7240 O.2   109  ASP109     -0.2867
    155  CB        14.5560   42.7410   30.4510 C.3   109  ASP109      0.1410
    156  CG        15.0910   41.7210   29.4660 C.2   109  ASP109      0.3668
    157  OD1       14.5420   41.6350   28.3510 O.co2 109  ASP109     -0.2456
    158  OD2       16.0620   41.0090   29.8040 O.co2 109  ASP109     -0.2456
    159  N         10.3120   46.5930   27.4190 N.3   111  LEU111     -0.1245
    160  CA         9.7850   47.9220   27.6960 C.3   111  LEU111      0.1561
    161  C          8.2610   47.8470   27.6250 C.2   111  LEU111      0.2260
    162  O          7.7060   47.1090   26.8070 O.2   111  LEU111     -0.2867
    163  CB        10.2880   48.9120   26.6420 C.3   111  LEU111      0.0270
    164  CG        11.4280   49.8720   26.9880 C.3   111  LEU111      0.0019
    165  CD1       12.5460   49.1540   27.7300 C.3   111  LEU111      0.0001
    166  CD2       11.9320   50.5060   25.7000 C.3   111  LEU111      0.0001
    167  N          5.8870   46.7740   24.5130 N.3   114  SER114     -0.1217
    168  CA         6.5670   45.9220   23.5390 C.3   114  SER114      0.1889
    169  C          5.6560   44.8100   23.0350 C.2   114  SER114      0.2288
    170  O          4.9360   44.1810   23.8100 O.2   114  SER114     -0.2866
    171  CB         7.8260   45.2880   24.1480 C.3   114  SER114      0.2089
    172  OG         8.7940   46.2590   24.5040 O.3   114  SER114     -0.2183
@<TRIPOS>BOND
     1    67    65   ar
     2    67    66   ar
     3    65    63   ar
     4   116   117    2
     5   116   115    1
     6    66    64   ar
     7    63    62   ar
     8    63    61   ar
     9   115   118    1
    10   115   114    1
    11    62    60   ar
    12   132   130    1
    13    64    61   ar
    14    61    59   ar
    15   118   119    1
    16    88    87    2
    17   130   129    1
    18   119   120    1
    19    60    59   ar
    20    59    58    1
    21    87    86    1
    22    71    70    2
    23   120   121    1
    24   123   122    1
    25   125   126    1
    26   129   126    1
    27   129   131    1
    28    58    55    1
    29    70    69    1
    30    70    76   am
    31    69    72    1
    32    69    68    1
    33   121   122    2
    34   126   127    1
    35   122   124    1
    36    72    73    1
    37    86    85    1
    38    86    89    1
    39    85    78   am
    40   110   109    2
    41    78    79    2
    42    78    77    1
    43    55    56    1
    44    55    54    1
    45    77    76    1
    46    77    80    1
    47   109   108    1
    48    56    57    2
    49   127   128    2
    50   127   133   am
    51    73    75   ar
    52    73    74   ar
    53   106   105    1
    54    54    44   am
    55    45    44    2
    56    82    83    1
    57    82    81    1
    58    84    83    1
    59    44    43    1
    60    80    81    1
    61   104   103    2
    62   133   134    1
    63   108   107    1
    64   108   111    1
    65   105   102    1
    66   103   107   am
    67   103   102    1
    68    43    42    1
    69    43    46    1
    70   107   113    1
    71   111   112    1
    72   102   101    1
    73   134   135    1
    74   101    92   am
    75   136   135    2
    76   135   137   am
    77   169   168    1
    78   169   170    2
    79   144   142    1
    80   112   113    1
    81   143   142    1
    82    46    47    1
    83    90    91    1
    84   141   142    1
    85   141   138    1
    86    92    91    1
    87    92    93    2
    88   168   171    1
    89   168   167    1
    90     9     7   am
    91   137   138    1
    92    91    94    1
    93    49    47   ar
    94    49    51   ar
    95    47    48   ar
    96   138   139    1
    97   171   172    1
    98    51    52   ar
    99    96    97    1
   100    96    95    1
   101     7     6    1
   102     7     8    2
   103    48    50   ar
   104    94    95    1
   105    97    98    2
   106     6     5    1
   107    52    50   ar
   108    52    53    1
   109    99    98    1
   110    98   100    1
   111   139   140    2
   112   139   145   am
   113   166   164    1
   114   145   146    1
   115     5     2    1
   116   163   164    1
   117   163   160    1
   118   162   161    2
   119   164   165    1
   120   159   160    1
   121   161   160    1
   122   148   147    2
   123   146   147    1
   124   146   149    1
   125     2     1    1
   126     2     3    1
   127    41    39   am
   128   150   149    1
   129   157   156   ar
   130   154   153    2
   131     3     4    2
   132   153   152    1
   133    39    40    2
   134    39    38    1
   135   156   158   ar
   136   156   155    1
   137    25    24    2
   138   151   152    1
   139   152   155    1
   140    38    37    1
   141    14    11    1
   142    27    28    1
   143    27    26    1
   144    24    23    1
   145    24    33   am
   146    18    17    2
   147    23    26    1
   148    23    22    1
   149    28    29    1
   150    34    37    1
   151    34    33    1
   152    34    35    1
   153    11    10    1
   154    11    12    1
   155    29    30    2
   156    13    12    2
   157    17    22   am
   158    17    16    1
   159    12    15   am
   160    35    36    2
   161    30    31    1
   162    30    32    1
   163    15    16    1
   164    15    21    1
   165    16    19    1
   166    21    20    1
   167    20    19    1
