@<TRIPOS>MOLECULE
tmp/2nv7B01.pdb
 172 159 0 0 0
SMALL
GASTEIGER

@<TRIPOS>ATOM
      1  N         31.5310   24.0870    4.5480 N.3    33  MET33      -0.1245
      2  CA        31.7260   25.3750    5.1960 C.3    33  MET33       0.1570
      3  C         31.6240   26.4820    4.1650 C.2    33  MET33       0.2261
      4  O         31.1490   27.5760    4.4570 O.2    33  MET33      -0.2867
      5  CB        33.0890   25.4230    5.8930 C.3    33  MET33       0.0387
      6  CG        33.1420   24.6020    7.1750 C.3    33  MET33       0.0595
      7  SD        31.8930   25.1720    8.3850 S.3    33  MET33      -0.1393
      8  CE        30.5500   24.0470    8.0140 C.3    33  MET33       0.0692
      9  N         27.7800   26.9330    3.5250 N.3    36  LEU36      -0.1231
     10  CA        27.0420   27.6060    4.5930 C.3    36  LEU36       0.1693
     11  C         27.4360   29.0640    4.7150 C.2    36  LEU36       0.2592
     12  O         26.5870   29.9180    4.9420 O.2    36  LEU36      -0.2718
     13  CB        27.2600   26.8980    5.9360 C.3    36  LEU36       0.0284
     14  CG        26.7730   25.4530    6.0320 C.3    36  LEU36       0.0019
     15  CD1       27.1720   24.8570    7.3730 C.3    36  LEU36       0.0001
     16  CD2       25.2720   25.4010    5.8440 C.3    36  LEU36       0.0001
     17  N         28.7220   29.3570    4.5610 N.am   37  THR37      -0.1953
     18  CA        29.1690   30.7340    4.6750 C.3    37  THR37       0.1897
     19  C         28.7670   31.5630    3.4580 C.2    37  THR37       0.2313
     20  O         28.4340   32.7420    3.6000 O.2    37  THR37      -0.2863
     21  CB        30.7050   30.8350    4.8850 C.3    37  THR37       0.1794
     22  OG1       31.3860   30.2080    3.7960 O.3    37  THR37      -0.2208
     23  CG2       31.1070   30.1520    6.1760 C.3    37  THR37       0.0378
     24  N         26.1480   31.1280    1.6860 N.3    39  LEU39      -0.1231
     25  CA        24.7230   31.3560    1.8200 C.3    39  LEU39       0.1693
     26  C         24.4570   32.4610    2.8420 C.2    39  LEU39       0.2591
     27  O         23.7390   33.4140    2.5560 O.2    39  LEU39      -0.2718
     28  CB        24.0310   30.0670    2.2490 C.3    39  LEU39       0.0284
     29  CG        22.5430   30.2160    2.5000 C.3    39  LEU39       0.0019
     30  CD1       21.8630   30.6380    1.2050 C.3    39  LEU39       0.0001
     31  CD2       21.9840   28.9100    3.0360 C.3    39  LEU39       0.0001
     32  N         25.0500   32.3220    4.0280 N.am   40  ALA40      -0.1980
     33  CA        24.8830   33.2950    5.0910 C.3    40  ALA40       0.1597
     34  C         25.1920   34.6930    4.5640 C.2    40  ALA40       0.2287
     35  O         24.4000   35.6020    4.7290 O.2    40  ALA40      -0.2864
     36  CB        25.8030   32.9570    6.2650 C.3    40  ALA40       0.0319
     37  N         22.4010   35.8890    2.4780 N.3    43  GLU43      -0.1245
     38  CA        21.2010   36.1150    3.2620 C.3    43  GLU43       0.1567
     39  C         21.3570   37.3870    4.0770 C.2    43  GLU43       0.2260
     40  O         20.3840   38.1080    4.2850 O.2    43  GLU43      -0.2867
     41  CB        20.9180   34.9220    4.1810 C.3    43  GLU43       0.0388
     42  CG        20.2390   33.7600    3.4630 C.3    43  GLU43       0.1160
     43  CD        19.8600   32.6320    4.4080 C.2    43  GLU43       0.3649
     44  OE1       20.7590   31.9330    4.8960 O.co2  43  GLU43      -0.2457
     45  OE2       18.6560   32.4560    4.6740 O.co2  43  GLU43      -0.2457
     46  N         22.9950   36.0560   13.4740 N.3    74  MET74      -0.1245
     47  CA        22.9570   34.5930   13.3840 C.3    74  MET74       0.1570
     48  C         21.6150   34.0310   13.8870 C.2    74  MET74       0.2261
     49  O         21.0770   33.0850   13.3180 O.2    74  MET74      -0.2867
     50  CB        24.1120   33.9640   14.1690 C.3    74  MET74       0.0387
     51  CG        24.2000   32.4550   14.0060 C.3    74  MET74       0.0595
     52  SD        24.3450   31.8700   12.2800 S.3    74  MET74      -0.1393
     53  CE        26.1010   31.9190   12.0710 C.3    74  MET74       0.0692
     54  N         19.1180   34.5610   11.2470 N.3    77  LEU77      -0.1231
     55  CA        19.3730   33.5820   10.1930 C.3    77  LEU77       0.1693
     56  C         18.8710   32.1840   10.5770 C.2    77  LEU77       0.2591
     57  O         18.2790   31.4860    9.7570 O.2    77  LEU77      -0.2718
     58  CB        20.8730   33.4920    9.8700 C.3    77  LEU77       0.0284
     59  CG        21.5610   34.6190    9.0860 C.3    77  LEU77       0.0019
     60  CD1       23.0070   34.2350    8.8720 C.3    77  LEU77       0.0001
     61  CD2       20.8820   34.8430    7.7240 C.3    77  LEU77       0.0001
     62  N         19.1070   31.7670   11.8180 N.am   78  MET78      -0.1979
     63  CA        18.6620   30.4330   12.2460 C.3    78  MET78       0.1605
     64  C         17.1500   30.3220   12.4350 C.2    78  MET78       0.2287
     65  O         16.5570   29.2600   12.2270 O.2    78  MET78      -0.2864
     66  CB        19.4230   30.0100   13.5000 C.3    78  MET78       0.0413
     67  CG        20.8820   29.6590   13.1830 C.3    78  MET78       0.0598
     68  SD        21.8360   29.2230   14.6250 S.3    78  MET78      -0.1393
     69  CE        23.3650   28.5280   13.8290 C.3    78  MET78       0.0692
     70  N         16.0050   29.7230    8.9890 N.3    81  LEU81      -0.1245
     71  CA        16.3620   28.3540    8.6490 C.3    81  LEU81       0.1561
     72  C         15.3390   27.3570    9.1940 C.2    81  LEU81       0.2260
     73  O         14.8430   26.5010    8.4650 O.2    81  LEU81      -0.2867
     74  CB        17.7350   28.0080    9.2140 C.3    81  LEU81       0.0270
     75  CG        18.1290   26.5330    9.0720 C.3    81  LEU81       0.0019
     76  CD1       18.0450   26.1140    7.6040 C.3    81  LEU81       0.0001
     77  CD2       19.5480   26.3350    9.6150 C.3    81  LEU81       0.0001
     78  N         11.9450   27.5050    7.4450 N.3    84  ARG84      -0.1245
     79  CA        11.9890   26.8440    6.1460 C.3    84  ARG84       0.1563
     80  C         12.0120   25.3310    6.2840 C.2    84  ARG84       0.2260
     81  O         11.6790   24.6190    5.3400 O.2    84  ARG84      -0.2867
     82  CB        13.2280   27.2620    5.3460 C.3    84  ARG84       0.0307
     83  CG        13.2980   28.7180    5.0040 C.3    84  ARG84       0.0489
     84  CD        14.2990   28.9890    3.8930 C.3    84  ARG84       0.2205
     85  NE        15.7000   28.7060    4.2140 N.pl3  84  ARG84      -0.0865
     86  CZ        16.4860   29.4860    4.9490 C.cat  84  ARG84       0.5346
     87  NH1       16.0200   30.6170    5.4740 N.pl3  84  ARG84       0.1354
     88  NH2       17.7540   29.1540    5.1290 N.pl3  84  ARG84       0.1354
     89  N         18.3490   24.5980    4.0380 N.3    94  PHE94      -0.1241
     90  CA        19.1440   25.8160    3.9350 C.3    94  PHE94       0.1605
     91  C         18.7320   26.6210    2.7080 C.2    94  PHE94       0.2264
     92  O         18.7060   27.8550    2.7380 O.2    94  PHE94      -0.2867
     93  CB        20.6380   25.4910    3.8680 C.3    94  PHE94       0.0534
     94  CG        21.2330   25.1360    5.1930 C.ar   94  PHE94      -0.0203
     95  CD1       21.2420   23.8150    5.6440 C.ar   94  PHE94      -0.0042
     96  CD2       21.7610   26.1310    6.0120 C.ar   94  PHE94      -0.0042
     97  CE1       21.7670   23.4890    6.8800 C.ar   94  PHE94      -0.0003
     98  CE2       22.2940   25.8140    7.2630 C.ar   94  PHE94      -0.0003
     99  CZ        22.2960   24.4840    7.6950 C.ar   94  PHE94      -0.0000
    100  N         29.8050   20.4970   13.9140 N.3   111  ILE111     -0.1245
    101  CA        28.5540   20.9100   13.2770 C.3   111  ILE111      0.1561
    102  C         27.3370   20.0970   13.6850 C.2   111  ILE111      0.2260
    103  O         26.2550   20.6480   13.8970 O.2   111  ILE111     -0.2867
    104  CB        28.6450   20.8260   11.7410 C.3   111  ILE111      0.0252
    105  CG1       29.5730   21.9000   11.2050 C.3   111  ILE111      0.0019
    106  CG2       27.2790   20.9600   11.1270 C.3   111  ILE111      0.0019
    107  CD1       29.1880   23.2920   11.5520 C.3   111  ILE111      0.0001
    108  N         25.2910   21.3320   16.3680 N.3   114  ILE114     -0.1231
    109  CA        24.4670   22.4850   16.0020 C.3   114  ILE114      0.1692
    110  C         23.2310   22.0380   15.2250 C.2   114  ILE114      0.2592
    111  O         22.1290   22.5300   15.4640 O.2   114  ILE114     -0.2718
    112  CB        25.2250   23.5000   15.1080 C.3   114  ILE114      0.0266
    113  CG1       26.6120   23.8080   15.6780 C.3   114  ILE114      0.0019
    114  CG2       24.4140   24.7830   14.9980 C.3   114  ILE114      0.0020
    115  CD1       26.5950   24.3940   17.0400 C.3   114  ILE114      0.0001
    116  N         23.4220   21.1150   14.2830 N.am  115  PHE115     -0.1976
    117  CA        22.3130   20.6000   13.4850 C.3   115  PHE115      0.1639
    118  C         21.2930   19.9540   14.4020 C.2   115  PHE115      0.2290
    119  O         20.0840   20.1130   14.2160 O.2   115  PHE115     -0.2864
    120  CB        22.8120   19.5730   12.4680 C.3   115  PHE115      0.0560
    121  CG        23.4780   20.1840   11.2630 C.ar  115  PHE115     -0.0200
    122  CD1       23.9570   21.4830   11.2980 C.ar  115  PHE115     -0.0042
    123  CD2       23.6310   19.4510   10.0910 C.ar  115  PHE115     -0.0042
    124  CE1       24.5710   22.0400   10.1960 C.ar  115  PHE115     -0.0003
    125  CE2       24.2500   20.0090    8.9780 C.ar  115  PHE115     -0.0003
    126  CZ        24.7200   21.3090    9.0360 C.ar  115  PHE115     -0.0000
    127  N         19.2930   22.7320   16.2210 N.3   118  LEU118     -0.1245
    128  CA        18.3790   23.3570   15.2720 C.3   118  LEU118      0.1561
    129  C         17.2000   22.4590   14.9580 C.2   118  LEU118      0.2260
    130  O         16.0570   22.9190   14.9330 O.2   118  LEU118     -0.2867
    131  CB        19.1220   23.7160   13.9870 C.3   118  LEU118      0.0270
    132  CG        20.1290   24.8580   14.1560 C.3   118  LEU118      0.0019
    133  CD1       21.1260   24.8530   13.0160 C.3   118  LEU118      0.0001
    134  CD2       19.3890   26.1780   14.2140 C.3   118  LEU118      0.0001
    135  N         26.7230   28.2870   16.8780 N.3   200  GLY200     -0.1225
    136  CA        27.0840   28.4280   15.4760 C.3   200  GLY200      0.1811
    137  C         28.1140   29.5440   15.3210 C.2   200  GLY200      0.2280
    138  O         29.0340   29.4560   14.5060 O.2   200  GLY200     -0.2866
    139  N         31.4500   28.4070   16.6950 N.3   203  HIS203     -0.1226
    140  CA        31.9540   27.4550   15.7130 C.3   203  HIS203      0.1752
    141  C         32.5250   28.1860   14.5080 C.2   203  HIS203      0.2595
    142  O         33.6240   27.8770   14.0510 O.2   203  HIS203     -0.2718
    143  CB        30.8320   26.5070   15.2690 C.3   203  HIS203      0.0759
    144  CG        31.3030   25.3840   14.4020 C.ar  203  HIS203      0.0818
    145  ND1       31.6960   25.5650   13.0940 N.ar  203  HIS203     -0.2268
    146  CD2       31.5100   24.0740   14.6770 C.ar  203  HIS203      0.1154
    147  CE1       32.1290   24.4190   12.6010 C.ar  203  HIS203      0.1986
    148  NE2       32.0260   23.4980   13.5420 N.ar  203  HIS203     -0.2212
    149  N         31.7820   29.1620   14.0030 N.am  204  LEU204     -0.1980
    150  CA        32.2120   29.9380   12.8480 C.3   204  LEU204      0.1596
    151  C         33.4840   30.7470   13.0950 C.2   204  LEU204      0.2287
    152  O         34.3840   30.7720   12.2530 O.2   204  LEU204     -0.2864
    153  CB        31.0940   30.8820   12.4060 C.3   204  LEU204      0.0297
    154  CG        31.4380   31.8390   11.2670 C.3   204  LEU204      0.0022
    155  CD1       31.9340   31.0360   10.0580 C.3   204  LEU204      0.0001
    156  CD2       30.2140   32.6800   10.9190 C.3   204  LEU204      0.0001
    157  N         36.2930   28.4150   13.0650 N.3   207  MET207     -0.1245
    158  CA        36.5880   27.8830   11.7410 C.3   207  MET207      0.1570
    159  C         37.3470   28.9500   10.9650 C.2   207  MET207      0.2261
    160  O         38.0970   28.6460   10.0460 O.2   207  MET207     -0.2867
    161  CB        35.3030   27.5050   10.9990 C.3   207  MET207      0.0387
    162  CG        34.6150   26.2510   11.5150 C.3   207  MET207      0.0595
    163  SD        35.5190   24.7060   11.2020 S.3   207  MET207     -0.1393
    164  CE        35.5200   23.9500   12.8130 C.3   207  MET207      0.0692
    165  N         29.9300   38.9310    5.8120 N.3   219  LEU219     -0.1245
    166  CA        30.0390   37.9310    6.8640 C.3   219  LEU219      0.1561
    167  C         31.1300   38.2020    7.8890 C.2   219  LEU219      0.2260
    168  O         30.8790   38.1650    9.0940 O.2   219  LEU219     -0.2867
    169  CB        30.2490   36.5530    6.2500 C.3   219  LEU219      0.0270
    170  CG        30.2590   35.3870    7.2440 C.3   219  LEU219      0.0019
    171  CD1       28.9680   35.3890    8.0340 C.3   219  LEU219      0.0001
    172  CD2       30.4260   34.0730    6.5060 C.3   219  LEU219      0.0001
@<TRIPOS>BOND
     1    30    29    1
     2    24    25    1
     3    25    28    1
     4    25    26    1
     5    28    29    1
     6    37    38    1
     7    29    31    1
     8    27    26    2
     9    91    92    2
    10    91    90    1
    11    26    32   am
    12    38    39    1
    13    38    41    1
    14    19    20    2
    15    19    18    1
    16    42    41    1
    17    42    43    1
    18     9    10    1
    19    22    21    1
    20    93    90    1
    21    93    94    1
    22    84    85    1
    23    84    83    1
    24    90    89    1
    25    32    33    1
    26    39    40    2
    27     3     4    2
    28     3     2    1
    29    85    86    2
    30    43    45   ar
    31    43    44   ar
    32     1     2    1
    33    17    18    1
    34    17    11   am
    35    34    35    2
    36    34    33    1
    37    10    11    1
    38    10    13    1
    39    18    21    1
    40    11    12    2
    41    21    23    1
    42    86    88    1
    43    86    87    1
    44    83    82    1
    45    33    36    1
    46    94    95   ar
    47    94    96   ar
    48     2     5    1
    49    81    80    2
    50    82    79    1
    51    95    97   ar
    52   165   166    1
    53    16    14    1
    54     5     6    1
    55    13    14    1
    56    96    98   ar
    57    14    15    1
    58    79    80    1
    59    79    78    1
    60   169   166    1
    61   169   170    1
    62   172   170    1
    63   166   167    1
    64    97    99   ar
    65     6     7    1
    66   170   171    1
    67    98    99   ar
    68    76    75    1
    69    61    59    1
    70   167   168    2
    71     8     7    1
    72    73    72    2
    73    71    70    1
    74    71    72    1
    75    71    74    1
    76    60    59    1
    77   125   126   ar
    78   125   123   ar
    79   126   124   ar
    80    75    74    1
    81    75    77    1
    82    59    58    1
    83    57    56    2
    84    58    55    1
    85   160   159    2
    86   155   154    1
    87   123   121   ar
    88    55    56    1
    89    55    54    1
    90   124   122   ar
    91    56    62   am
    92   156   154    1
    93   159   158    1
    94   161   162    1
    95   161   158    1
    96   106   104    1
    97   163   162    1
    98   163   164    1
    99   105   107    1
   100   105   104    1
   101   121   122   ar
   102   121   120    1
   103   154   153    1
   104   104   101    1
   105   158   157    1
   106    62    63    1
   107    53    52    1
   108    65    64    2
   109    63    64    1
   110    63    66    1
   111   152   151    2
   112    52    51    1
   113   153   150    1
   114   120   117    1
   115   147   145   ar
   116   147   148   ar
   117   150   151    1
   118   150   149    1
   119   133   132    1
   120   145   144   ar
   121    67    66    1
   122    67    68    1
   123   101   102    1
   124   101   100    1
   125    49    48    2
   126    47    46    1
   127    47    48    1
   128    47    50    1
   129   117   116    1
   130   117   118    1
   131   148   146   ar
   132   102   103    2
   133    69    68    1
   134   131   132    1
   135   131   128    1
   136   149   141   am
   137    51    50    1
   138   142   141    2
   139   132   134    1
   140   119   118    2
   141   116   110   am
   142   144   146   ar
   143   144   143    1
   144   138   137    2
   145   141   140    1
   146   130   129    2
   147   129   128    1
   148   114   112    1
   149   112   113    1
   150   112   109    1
   151   110   111    2
   152   110   109    1
   153   143   140    1
   154   128   127    1
   155   137   136    1
   156   136   135    1
   157   113   115    1
   158   140   139    1
   159   109   108    1
