@<TRIPOS>MOLECULE
tmp/2nv9B00.pdb
 139 130 0 0 0
SMALL
GASTEIGER

@<TRIPOS>ATOM
      1  N        128.9260  108.8830   53.9210 N.3    46  ALA46      -0.1245
      2  CA       127.6300  108.2250   53.7460 C.3    46  ALA46       0.1562
      3  C        127.6100  106.9420   54.6130 C.2    46  ALA46       0.2260
      4  O        128.1130  105.8940   54.2110 O.2    46  ALA46      -0.2867
      5  CB       127.3380  107.9060   52.2660 C.3    46  ALA46       0.0290
      6  N        125.4670  104.8200   55.3200 N.3    48  LYS48      -0.1245
      7  CA       124.7580  103.6480   54.7460 C.3    48  LYS48       0.1561
      8  C        125.7130  102.6780   54.0660 C.2    48  LYS48       0.2260
      9  O        125.4370  101.5040   53.9930 O.2    48  LYS48      -0.2867
     10  CB       123.6730  104.0680   53.7770 C.3    48  LYS48       0.0271
     11  CG       124.2380  104.8270   52.5760 C.3    48  LYS48       0.0035
     12  CD       123.1570  105.0690   51.5630 C.3    48  LYS48       0.0206
     13  CE       123.7790  105.7780   50.4140 C.3    48  LYS48       0.1093
     14  NZ       123.2530  105.3500   49.0880 N.3    48  LYS48      -0.1314
     15  N        126.8200  111.9430   56.5100 N.3    67  ASP67      -0.1239
     16  CA       125.6140  111.9470   55.7120 C.3    67  ASP67       0.1674
     17  C        124.7590  110.8100   56.2730 C.2    67  ASP67       0.2266
     18  O        125.1050  109.6140   56.0980 O.2    67  ASP67      -0.2867
     19  CB       125.9620  111.7190   54.2050 C.3    67  ASP67       0.1410
     20  CG       124.7970  111.2270   53.3730 C.2    67  ASP67       0.3668
     21  OD1      125.0490  110.7470   52.2310 O.co2  67  ASP67      -0.2456
     22  OD2      123.6390  111.2810   53.8090 O.co2  67  ASP67      -0.2456
     23  N        120.8100  113.7290   54.4440 N.3    90  ALA90      -0.1245
     24  CA       120.8550  113.8680   52.9450 C.3    90  ALA90       0.1562
     25  C        119.9960  112.8140   52.2610 C.2    90  ALA90       0.2260
     26  O        120.4680  112.0070   51.4600 O.2    90  ALA90      -0.2867
     27  CB       122.3060  113.8330   52.4180 C.3    90  ALA90       0.0290
     28  N        118.0440  119.0880   46.0010 N.3   133  ARG133     -0.1245
     29  CA       118.7430  118.0570   45.2430 C.3   133  ARG133      0.1563
     30  C        118.2530  118.0350   43.7880 C.2   133  ARG133      0.2260
     31  O        117.0550  117.8260   43.5110 O.2   133  ARG133     -0.2867
     32  CB       118.6230  116.6650   45.8820 C.3   133  ARG133      0.0307
     33  CG       119.4970  115.6160   45.1460 C.3   133  ARG133      0.0489
     34  CD       119.3920  114.2370   45.7650 C.3   133  ARG133      0.2205
     35  NE       119.8350  113.1520   44.8630 N.pl3 133  ARG133     -0.0865
     36  CZ       119.8880  111.8700   45.2240 C.cat 133  ARG133      0.5346
     37  NH1      119.5190  111.5240   46.4650 N.pl3 133  ARG133      0.1354
     38  NH2      120.3150  110.9330   44.3730 N.pl3 133  ARG133      0.1354
     39  N        125.5500  102.0620   39.8450 N.3   143  VAL143     -0.1245
     40  CA       124.2190  102.1000   40.4980 C.3   143  VAL143      0.1561
     41  C        123.5390  103.4050   40.1040 C.2   143  VAL143      0.2260
     42  O        124.0350  104.4850   40.4050 O.2   143  VAL143     -0.2867
     43  CB       124.3280  101.9290   42.0260 C.3   143  VAL143      0.0252
     44  CG1      122.9450  101.8530   42.6630 C.3   143  VAL143      0.0019
     45  CG2      125.1010  100.6620   42.3690 C.3   143  VAL143      0.0019
     46  N        120.6040  106.3730   40.0210 N.3   145  LEU145     -0.1245
     47  CA       119.8480  107.0810   41.0820 C.3   145  LEU145      0.1561
     48  C        118.8280  108.0970   40.5750 C.2   145  LEU145      0.2260
     49  O        117.8710  108.4390   41.3180 O.2   145  LEU145     -0.2867
     50  CB       120.7880  107.8440   42.0500 C.3   145  LEU145      0.0270
     51  CG       121.9240  107.0450   42.6740 C.3   145  LEU145      0.0019
     52  CD1      122.7940  108.0050   43.4670 C.3   145  LEU145      0.0001
     53  CD2      121.4170  105.8700   43.6010 C.3   145  LEU145      0.0001
     54  N        115.3710  110.0740   42.4050 N.3   149  PHE149     -0.1241
     55  CA       115.7390  111.2810   43.1800 C.3   149  PHE149      0.1605
     56  C        116.2630  112.4590   42.3510 C.2   149  PHE149      0.2264
     57  O        116.9240  112.2620   41.3590 O.2   149  PHE149     -0.2867
     58  CB       116.8050  110.9060   44.1770 C.3   149  PHE149      0.0534
     59  CG       116.3350  109.9080   45.2210 C.ar  149  PHE149     -0.0203
     60  CD1      115.3860  110.2840   46.1750 C.ar  149  PHE149     -0.0042
     61  CD2      116.8110  108.5940   45.2160 C.ar  149  PHE149     -0.0042
     62  CE1      114.9520  109.3730   47.1580 C.ar  149  PHE149     -0.0003
     63  CE2      116.3820  107.6880   46.2000 C.ar  149  PHE149     -0.0003
     64  CZ       115.4510  108.1020   47.1670 C.ar  149  PHE149     -0.0000
     65  N        123.6730  113.7450   43.1020 N.3   176  HIS176     -0.1241
     66  CA       124.4790  112.5520   43.1060 C.3   176  HIS176      0.1621
     67  C        124.4080  111.9490   41.6790 C.2   176  HIS176      0.2264
     68  O        123.3320  111.6710   41.1760 O.2   176  HIS176     -0.2867
     69  CB       123.9880  111.5540   44.1960 C.3   176  HIS176      0.0745
     70  CG       124.9560  110.4500   44.4560 C.ar  176  HIS176      0.0817
     71  ND1      125.7540  109.9170   43.4650 N.ar  176  HIS176     -0.2268
     72  CD2      125.2610  109.7740   45.5860 C.ar  176  HIS176      0.1154
     73  CE1      126.4910  108.9480   43.9730 C.ar  176  HIS176      0.1986
     74  NE2      126.2170  108.8450   45.2620 N.ar  176  HIS176     -0.2212
     75  N        126.0030  105.8930   41.9590 N.3   179  SER179     -0.1217
     76  CA       127.0090  105.3000   42.8170 C.3   179  SER179      0.1889
     77  C        127.9780  104.4450   42.0170 C.2   179  SER179      0.2288
     78  O        127.5760  103.7650   41.0560 O.2   179  SER179     -0.2866
     79  CB       126.3450  104.5310   43.9790 C.3   179  SER179      0.2089
     80  OG       127.3130  104.0470   44.8940 O.3   179  SER179     -0.2183
     81  N        128.1130  111.7900   46.1750 N.3   215  GLY215     -0.1210
     82  CA       129.0980  110.7080   46.2560 C.3   215  GLY215      0.1956
     83  C        129.4510  110.0620   44.9260 C.2   215  GLY215      0.2612
     84  O        129.3930  110.7060   43.8840 O.2   215  GLY215     -0.2717
     85  N        129.8050  108.7780   44.9570 N.am  216  GLY216     -0.1942
     86  CA       130.0570  108.0510   43.6740 C.3   216  GLY216      0.2014
     87  C        131.5000  107.6910   43.4080 C.2   216  GLY216      0.2638
     88  O        131.7590  106.7420   42.7100 O.2   216  GLY216     -0.2714
     89  N        132.4370  108.4110   44.0140 N.am  217  LEU217     -0.1977
     90  CA       133.8630  108.2210   43.6940 C.3   217  LEU217      0.1596
     91  C        134.4870  106.9670   44.3280 C.2   217  LEU217      0.2287
     92  O        134.1690  106.5900   45.4700 O.2   217  LEU217     -0.2864
     93  CB       134.6860  109.4340   44.1250 C.3   217  LEU217      0.0297
     94  CG       134.2500  110.8030   43.6540 C.3   217  LEU217      0.0022
     95  CD1      135.0670  111.8690   44.3500 C.3   217  LEU217      0.0001
     96  CD2      134.4520  110.8540   42.1470 C.3   217  LEU217      0.0001
     97  N        129.3150  113.7810   49.7490 N.3   252  GLU252     -0.1231
     98  CA       128.7300  112.6800   50.5320 C.3   252  GLU252      0.1684
     99  C        129.3910  111.3250   50.1480 C.2   252  GLU252      0.2434
    100  O        128.7150  110.4300   49.6510 O.2   252  GLU252     -0.2733
    101  CB       127.2250  112.6320   50.2540 C.3   252  GLU252      0.0402
    102  CG       126.5200  113.9820   50.4330 C.3   252  GLU252      0.1161
    103  CD       125.1380  114.0120   49.8460 C.2   252  GLU252      0.3649
    104  OE1      124.8190  113.1540   49.0300 O.co2 252  GLU252     -0.2457
    105  OE2      124.3550  114.9230   50.1680 O.co2 252  GLU252     -0.2457
    106  N        130.7240  111.1920   50.3540 N.am  253  PRO253     -0.2718
    107  CA       131.3550  109.9560   49.8450 C.3   253  PRO253      0.1535
    108  C        131.0610  108.7490   50.7530 C.2   253  PRO253      0.2599
    109  O        131.0860  108.8840   51.9810 O.2   253  PRO253     -0.2715
    110  CB       132.8510  110.2980   49.8440 C.3   253  PRO253      0.0310
    111  CG       132.9860  111.2940   51.0060 C.3   253  PRO253      0.0237
    112  CD       131.6940  112.0810   51.0410 C.3   253  PRO253      0.0939
    113  N        130.7690  107.5850   50.1650 N.am  254  GLY254     -0.1941
    114  CA       130.6690  106.3600   50.9890 C.3   254  GLY254      0.2014
    115  C        131.8090  105.4090   50.5970 C.2   254  GLY254      0.2638
    116  O        132.7700  105.2100   51.3450 O.2   254  GLY254     -0.2714
    117  N        131.7050  104.8640   49.3840 N.am  255  ARG255     -0.1977
    118  CA       132.6580  103.8780   48.8840 C.3   255  ARG255      0.1597
    119  C        134.1210  104.3520   48.8780 C.2   255  ARG255      0.2287
    120  O        135.0100  103.5410   49.1200 O.2   255  ARG255     -0.2864
    121  CB       132.2290  103.3540   47.4840 C.3   255  ARG255      0.0334
    122  CG       132.0760  104.4560   46.4250 C.3   255  ARG255      0.0492
    123  CD       131.1620  104.0150   45.1890 C.3   255  ARG255      0.2205
    124  NE       131.3180  102.5960   44.9600 N.pl3 255  ARG255     -0.0865
    125  CZ       130.3480  101.6940   44.8400 C.cat 255  ARG255      0.5346
    126  NH1      129.0400  101.9970   44.9280 N.pl3 255  ARG255      0.1354
    127  NH2      130.7100  100.4430   44.6030 N.pl3 255  ARG255      0.1354
    128  N        129.2400   98.5650   50.8640 N.3   353  TYR353     -0.1241
    129  CA       127.9720   97.8660   50.5330 C.3   353  TYR353      0.1605
    130  C        128.1450   96.3520   50.6370 C.2   353  TYR353      0.2264
    131  O        127.7070   95.5840   49.7550 O.2   353  TYR353     -0.2867
    132  CB       127.4160   98.2850   49.1400 C.3   353  TYR353      0.0534
    133  CG       127.2930   99.7730   49.0450 C.ar  353  TYR353     -0.0201
    134  CD1      126.2990  100.4530   49.7780 C.ar  353  TYR353     -0.0009
    135  CD2      128.1700  100.5240   48.2340 C.ar  353  TYR353     -0.0009
    136  CE1      126.1880  101.8610   49.7480 C.ar  353  TYR353      0.0417
    137  CE2      128.0860  101.9130   48.1970 C.ar  353  TYR353      0.0417
    138  CZ       127.0980  102.5940   48.9700 C.ar  353  TYR353      0.1957
    139  OH       126.9910  103.9660   48.9160 O.3   353  TYR353     -0.2866
@<TRIPOS>BOND
     1    39    40    1
     2    46    47    1
     3    41    42    2
     4    41    40    1
     5    40    43    1
     6    48    47    1
     7    48    49    2
     8    78    77    2
     9    47    50    1
    10    68    67    2
    11    57    56    2
    12    67    66    1
    13    75    76    1
    14    77    76    1
    15    43    45    1
    16    43    44    1
    17    50    51    1
    18    96    94    1
    19    56    55    1
    20    54    55    1
    21    51    52    1
    22    51    53    1
    23    88    87    2
    24    76    79    1
    25    65    66    1
    26    66    69    1
    27    55    58    1
    28    87    86    1
    29    87    89   am
    30    71    73   ar
    31    71    70   ar
    32    31    30    2
    33    94    93    1
    34    94    95    1
    35    86    85    1
    36    90    89    1
    37    90    93    1
    38    90    91    1
    39    30    29    1
    40    84    83    2
    41    73    74   ar
    42    79    80    1
    43    58    59    1
    44    69    70    1
    45    91    92    2
    46    38    36    1
    47    70    72   ar
    48   127   125    1
    49   125   126    1
    50   125   124    2
    51    35    36    2
    52    35    34    1
    53    83    85   am
    54    83    82    1
    55   124   123    1
    56    33    34    1
    57    33    32    1
    58   123   122    1
    59    61    59   ar
    60    61    63   ar
    61    59    60   ar
    62    36    37    1
    63    29    32    1
    64    29    28    1
    65    74    72   ar
    66    81    82    1
    67    60    62   ar
    68    63    64   ar
    69   122   121    1
    70    62    64   ar
    71   121   118    1
    72   137   135   ar
    73   137   138   ar
    74   135   133   ar
    75   119   118    1
    76   119   120    2
    77   118   117    1
    78   139   138    1
    79   138   136   ar
    80   104   103   ar
    81   133   132    1
    82   133   134   ar
    83    14    13    1
    84   132   129    1
    85   117   115   am
    86   100    99    2
    87   136   134   ar
    88    97    98    1
    89   131   130    2
    90   110   107    1
    91   110   111    1
    92   107   106    1
    93   107   108    1
    94   103   105   ar
    95   103   102    1
    96    99   106   am
    97    99    98    1
    98   113   108   am
    99   113   114    1
   100   101   102    1
   101   101    98    1
   102   106   112    1
   103    13    12    1
   104   129   130    1
   105   129   128    1
   106   115   114    1
   107   115   116    2
   108   108   109    2
   109   111   112    1
   110    26    25    2
   111    12    11    1
   112    21    20   ar
   113    25    24    1
   114     5     2    1
   115    27    24    1
   116    11    10    1
   117    24    23    1
   118    20    22   ar
   119    20    19    1
   120     2     1    1
   121     2     3    1
   122    10     7    1
   123     9     8    2
   124     8     7    1
   125    19    16    1
   126     4     3    2
   127     7     6    1
   128    16    17    1
   129    16    15    1
   130    18    17    2
