@<TRIPOS>MOLECULE
tmp/2nvaH01.pdb
 195 185 0 0 0
SMALL
GASTEIGER

@<TRIPOS>ATOM
      1  N        152.5160  140.1720   13.5020 N.3    41  ALA41      -0.1245
      2  CA       153.1040  141.4910   13.7070 C.3    41  ALA41       0.1562
      3  C        154.3560  141.6180   12.8480 C.2    41  ALA41       0.2260
      4  O        155.4500  141.1690   13.2410 O.2    41  ALA41      -0.2867
      5  CB       153.4170  141.7300   15.2050 C.3    41  ALA41       0.0290
      6  N        156.3530  143.8640   12.2380 N.3    43  LYS43      -0.1245
      7  CA       157.4790  144.5660   12.8430 C.3    43  LYS43       0.1561
      8  C        158.5000  143.6250   13.4840 C.2    43  LYS43       0.2260
      9  O        159.6690  143.9790   13.6120 O.2    43  LYS43      -0.2867
     10  CB       156.9920  145.5800   13.8890 C.3    43  LYS43       0.0271
     11  CG       156.1040  145.0040   14.9910 C.3    43  LYS43       0.0035
     12  CD       155.5230  146.1570   15.7910 C.3    43  LYS43       0.0206
     13  CE       154.1070  145.8630   16.3000 C.3    43  LYS43       0.1093
     14  NZ       153.0840  145.7240   15.2220 N.3    43  LYS43      -0.1314
     15  N        149.3030  142.3800   11.1110 N.3    62  ASP62      -0.1239
     16  CA       149.2850  143.5760   11.9290 C.3    62  ASP62       0.1674
     17  C        150.4230  144.4630   11.4020 C.2    62  ASP62       0.2266
     18  O        151.5900  144.1000   11.5230 O.2    62  ASP62      -0.2867
     19  CB       149.4880  143.2080   13.4210 C.3    62  ASP62       0.1410
     20  CG       150.1640  144.3190   14.2320 C.2    62  ASP62       0.3668
     21  OD1      150.7920  144.0060   15.2740 O.co2  62  ASP62      -0.2456
     22  OD2      150.0660  145.5120   13.8480 O.co2  62  ASP62      -0.2456
     23  N        147.3950  148.1640   13.4170 N.3    85  ALA85      -0.1231
     24  CA       147.2770  148.0310   14.8680 C.3    85  ALA85       0.1694
     25  C        148.2750  148.9280   15.5980 C.2    85  ALA85       0.2592
     26  O        148.9980  148.4680   16.4760 O.2    85  ALA85      -0.2718
     27  CB       147.4090  146.5520   15.3030 C.3    85  ALA85       0.0304
     28  N        148.3220  150.1970   15.2120 N.am   86  HIS86      -0.1976
     29  CA       149.1350  151.2020   15.9040 C.3    86  HIS86       0.1656
     30  C        148.1840  152.3100   16.3200 C.2    86  HIS86       0.2291
     31  O        147.4580  152.8330   15.4800 O.2    86  HIS86      -0.2864
     32  CB       150.1960  151.7660   14.9610 C.3    86  HIS86       0.0771
     33  CG       151.2890  152.4990   15.6670 C.ar   86  HIS86       0.0820
     34  ND1      151.0460  153.4280   16.6580 N.ar   86  HIS86      -0.2267
     35  CD2      152.6350  152.4020   15.5640 C.ar   86  HIS86       0.1154
     36  CE1      152.1960  153.9110   17.0950 C.ar   86  HIS86       0.1986
     37  NE2      153.1750  153.2970   16.4530 N.ar   86  HIS86      -0.2212
     38  N        142.0380  150.3330   22.0440 N.3   128  ARG128     -0.1245
     39  CA       143.0730  149.6500   22.8120 C.3   128  ARG128      0.1563
     40  C        143.0590  150.1460   24.2480 C.2   128  ARG128      0.2260
     41  O        143.1880  151.3460   24.5000 O.2   128  ARG128     -0.2867
     42  CB       144.4560  149.8470   22.1920 C.3   128  ARG128      0.0307
     43  CG       145.5710  149.1670   22.9670 C.3   128  ARG128      0.0489
     44  CD       146.9100  149.3350   22.2610 C.3   128  ARG128      0.2205
     45  NE       148.0250  148.8210   23.0650 N.pl3 128  ARG128     -0.0865
     46  CZ       149.2900  148.7830   22.6490 C.cat 128  ARG128      0.5346
     47  NH1      149.6030  149.2200   21.4320 N.pl3 128  ARG128      0.1354
     48  NH2      150.2400  148.3180   23.4530 N.pl3 128  ARG128      0.1354
     49  N        159.2480  143.4590   27.6470 N.3   138  VAL138     -0.1245
     50  CA       159.2180  144.8250   27.1110 C.3   138  VAL138      0.1561
     51  C        157.8780  145.4590   27.5000 C.2   138  VAL138      0.2260
     52  O        156.8260  145.0110   27.0500 O.2   138  VAL138     -0.2867
     53  CB       159.4060  144.8320   25.5700 C.3   138  VAL138      0.0252
     54  CG1      159.2370  146.2350   25.0070 C.3   138  VAL138      0.0019
     55  CG2      160.7820  144.2600   25.1910 C.3   138  VAL138      0.0019
     56  N        154.8190  148.1860   27.7210 N.3   140  LEU140     -0.1245
     57  CA       154.1300  148.9870   26.6910 C.3   140  LEU140      0.1561
     58  C        153.0590  149.9280   27.2360 C.2   140  LEU140      0.2260
     59  O        152.6310  150.8440   26.5320 O.2   140  LEU140     -0.2867
     60  CB       153.4890  148.0630   25.6430 C.3   140  LEU140      0.0270
     61  CG       154.2990  146.9370   24.9900 C.3   140  LEU140      0.0019
     62  CD1      153.3510  146.1170   24.1090 C.3   140  LEU140      0.0001
     63  CD2      155.5020  147.4470   24.1720 C.3   140  LEU140      0.0001
     64  N        151.0330  153.2790   25.6170 N.3   144  PHE144     -0.1241
     65  CA       149.8710  152.9170   24.8040 C.3   144  PHE144      0.1605
     66  C        148.7060  152.3680   25.6330 C.2   144  PHE144      0.2264
     67  O        148.9240  151.7030   26.6550 O.2   144  PHE144     -0.2867
     68  CB       150.2790  151.8680   23.7690 C.3   144  PHE144      0.0534
     69  CG       151.1920  152.4010   22.7020 C.ar  144  PHE144     -0.0203
     70  CD1      150.7450  153.3900   21.8280 C.ar  144  PHE144     -0.0042
     71  CD2      152.4970  151.9410   22.5870 C.ar  144  PHE144     -0.0042
     72  CE1      151.5930  153.9110   20.8390 C.ar  144  PHE144     -0.0003
     73  CE2      153.3480  152.4530   21.6060 C.ar  144  PHE144     -0.0003
     74  CZ       152.8880  153.4280   20.7260 C.ar  144  PHE144     -0.0000
     75  N        147.5410  144.9470   24.7040 N.3   171  HIS171     -0.1241
     76  CA       148.8010  144.2320   24.6100 C.3   171  HIS171      0.1621
     77  C        149.4130  144.2750   26.0200 C.2   171  HIS171      0.2264
     78  O        149.7040  145.3610   26.5470 O.2   171  HIS171     -0.2867
     79  CB       149.7310  144.8790   23.5750 C.3   171  HIS171      0.0745
     80  CG       150.8310  143.9720   23.0930 C.ar  171  HIS171      0.0817
     81  ND1      151.5450  143.1440   23.9350 N.ar  171  HIS171     -0.2268
     82  CD2      151.3020  143.7280   21.8490 C.ar  171  HIS171      0.1154
     83  CE1      152.4400  142.4650   23.2340 C.ar  171  HIS171      0.1986
     84  NE2      152.3240  142.8130   21.9690 N.ar  171  HIS171     -0.2212
     85  N        155.4620  142.9420   25.4430 N.3   174  SER174     -0.1202
     86  CA       156.1250  142.0390   24.5100 C.3   174  SER174      0.2020
     87  C        156.9830  141.0640   25.3080 C.2   174  SER174      0.2619
     88  O        157.7820  141.4850   26.1500 O.2   174  SER174     -0.2717
     89  CB       156.9660  142.8400   23.5170 C.3   174  SER174      0.2103
     90  OG       157.4070  142.0200   22.4540 O.3   174  SER174     -0.2182
     91  N        156.8150  139.7680   25.0520 N.am  175  GLY175     -0.1956
     92  CA       157.5900  138.7410   25.7680 C.3   175  GLY175      0.1869
     93  C        156.9610  138.4720   27.1220 C.2   175  GLY175      0.2309
     94  O        157.5570  138.7770   28.1600 O.2   175  GLY175     -0.2863
     95  N        149.6910  140.7180   21.4150 N.3   210  GLY210     -0.1210
     96  CA       150.8090  139.8030   21.2330 C.3   210  GLY210      0.1956
     97  C        151.4500  139.4030   22.5510 C.2   210  GLY210      0.2612
     98  O        150.7750  139.3560   23.5880 O.2   210  GLY210     -0.2717
     99  N        152.7380  139.0930   22.5070 N.am  211  GLY211     -0.1942
    100  CA       153.5020  138.8280   23.7260 C.3   211  GLY211      0.2014
    101  C        153.8990  137.3760   23.9450 C.2   211  GLY211      0.2638
    102  O        154.8430  137.0940   24.7020 O.2   211  GLY211     -0.2714
    103  N        153.2090  136.4540   23.2850 N.am  212  LEU212     -0.1977
    104  CA       153.3720  135.0360   23.5930 C.3   212  LEU212      0.1596
    105  C        154.5920  134.4060   22.9470 C.2   212  LEU212      0.2287
    106  O        154.9260  134.7080   21.8100 O.2   212  LEU212     -0.2864
    107  CB       152.1330  134.2310   23.2240 C.3   212  LEU212      0.0297
    108  CG       150.8140  134.5560   23.9330 C.3   212  LEU212      0.0022
    109  CD1      149.7000  133.7900   23.2460 C.3   212  LEU212      0.0001
    110  CD2      150.8580  134.2350   25.4340 C.3   212  LEU212      0.0001
    111  N        147.6720  139.5140   17.8050 N.3   244  GLU244     -0.1231
    112  CA       148.7400  140.1670   17.0610 C.3   244  GLU244      0.1684
    113  C        150.1060  139.5550   17.4100 C.2   244  GLU244      0.2434
    114  O        150.9960  140.2660   17.8780 O.2   244  GLU244     -0.2733
    115  CB       148.7230  141.6800   17.3450 C.3   244  GLU244      0.0402
    116  CG       147.3710  142.3630   17.0770 C.3   244  GLU244      0.1161
    117  CD       147.2420  143.7210   17.7670 C.2   244  GLU244      0.3649
    118  OE1      148.1290  144.0770   18.5690 O.co2 244  GLU244     -0.2457
    119  OE2      146.2530  144.4540   17.5380 O.co2 244  GLU244     -0.2457
    120  N        150.2800  138.2340   17.1970 N.am  245  PRO245     -0.2718
    121  CA       151.5430  137.6380   17.6210 C.3   245  PRO245      0.1535
    122  C        152.6940  137.9940   16.6770 C.2   245  PRO245      0.2599
    123  O        152.5230  137.9840   15.4620 O.2   245  PRO245     -0.2715
    124  CB       151.2670  136.1360   17.5510 C.3   245  PRO245      0.0310
    125  CG       150.2070  135.9930   16.5150 C.3   245  PRO245      0.0237
    126  CD       149.3740  137.2430   16.5810 C.3   245  PRO245      0.0939
    127  N        153.8490  138.3010   17.2580 N.am  246  GLY246     -0.1941
    128  CA       155.0740  138.4950   16.4870 C.3   246  GLY246      0.2014
    129  C        156.0390  137.3730   16.8180 C.2   246  GLY246      0.2638
    130  O        156.2600  136.4770   16.0060 O.2   246  GLY246     -0.2714
    131  N        156.6000  137.4130   18.0280 N.am  247  ARG247     -0.1977
    132  CA       157.6720  136.4850   18.3880 C.3   247  ARG247      0.1597
    133  C        157.2270  135.0290   18.3940 C.2   247  ARG247      0.2287
    134  O        158.0650  134.1540   18.2340 O.2   247  ARG247     -0.2864
    135  CB       158.3040  136.8550   19.7400 C.3   247  ARG247      0.0334
    136  CG       157.3530  136.7850   20.9090 C.3   247  ARG247      0.0492
    137  CD       158.0730  137.1390   22.2110 C.3   247  ARG247      0.2205
    138  NE       158.3350  138.5680   22.3460 N.pl3 247  ARG247     -0.0865
    139  CZ       159.5540  139.1060   22.4420 C.cat 247  ARG247      0.5346
    140  NH1      160.6360  138.3360   22.3630 N.pl3 247  ARG247      0.1354
    141  NH2      159.6920  140.4180   22.5720 N.pl3 247  ARG247      0.1354
    142  N        170.5180  143.3920   19.0260 N.3   283  SER283     -0.1202
    143  CA       169.9010  144.4710   19.8130 C.3   283  SER283      0.2020
    144  C        169.1070  143.9550   21.0150 C.2   283  SER283      0.2618
    145  O        168.9380  144.6860   22.0010 O.2   283  SER283     -0.2717
    146  CB       169.0350  145.3760   18.9360 C.3   283  SER283      0.2103
    147  OG       167.9350  144.6550   18.4020 O.3   283  SER283     -0.2182
    148  N        168.6350  142.7060   20.9440 N.am  284  ASN284     -0.1974
    149  CA       167.9370  142.0880   22.0790 C.3   284  ASN284      0.1688
    150  C        168.7900  141.9600   23.3390 C.2   284  ASN284      0.2292
    151  O        168.2500  141.8300   24.4360 O.2   284  ASN284     -0.2864
    152  CB       167.3650  140.7200   21.6900 C.3   284  ASN284      0.1181
    153  CG       166.1070  140.8450   20.8580 C.2   284  ASN284      0.2629
    154  OD1      165.4150  141.8650   20.9280 O.2   284  ASN284     -0.2716
    155  ND2      165.7990  139.8150   20.0670 N.am  284  ASN284     -0.0877
    156  N        167.8410  145.5600   24.5610 N.3   287  PHE287     -0.1227
    157  CA       166.4390  145.8990   24.7520 C.3   287  PHE287      0.1736
    158  C        165.5990  144.8120   25.4100 C.2   287  PHE287      0.2595
    159  O        164.5180  145.1010   25.9430 O.2   287  PHE287     -0.2718
    160  CB       165.8280  146.3640   23.4280 C.3   287  PHE287      0.0547
    161  CG       166.4330  147.6310   22.9150 C.ar  287  PHE287     -0.0202
    162  CD1      166.1310  148.8550   23.5200 C.ar  287  PHE287     -0.0042
    163  CD2      167.3350  147.6070   21.8680 C.ar  287  PHE287     -0.0042
    164  CE1      166.7030  150.0480   23.0550 C.ar  287  PHE287     -0.0003
    165  CE2      167.9300  148.7900   21.3930 C.ar  287  PHE287     -0.0003
    166  CZ       167.6060  150.0130   21.9900 C.ar  287  PHE287     -0.0000
    167  N        166.0730  143.5690   25.3840 N.am  288  GLU288     -0.1979
    168  CA       165.3270  142.4730   26.0090 C.3   288  GLU288      0.1602
    169  C        166.1650  141.7270   27.0500 C.2   288  GLU288      0.2287
    170  O        165.7670  140.6610   27.5240 O.2   288  GLU288     -0.2864
    171  CB       164.7890  141.4970   24.9500 C.3   288  GLU288      0.0415
    172  CG       163.8410  142.1240   23.9140 C.3   288  GLU288      0.1163
    173  CD       163.0490  141.1040   23.1200 C.2   288  GLU288      0.3649
    174  OE1      163.3170  139.8800   23.2320 O.co2 288  GLU288     -0.2457
    175  OE2      162.1260  141.5250   22.3850 O.co2 288  GLU288     -0.2457
    176  N        162.8400  140.2000   16.4800 N.3   345  TYR345     -0.1241
    177  CA       163.4780  141.4860   16.8090 C.3   345  TYR345      0.1605
    178  C        165.0120  141.4020   16.7030 C.2   345  TYR345      0.2264
    179  O        165.7230  141.8630   17.5890 O.2   345  TYR345     -0.2867
    180  CB       163.0370  141.9880   18.2030 C.3   345  TYR345      0.0534
    181  CG       161.5320  142.0600   18.3230 C.ar  345  TYR345     -0.0201
    182  CD1      160.8210  143.0740   17.6800 C.ar  345  TYR345     -0.0009
    183  CD2      160.8210  141.1000   19.0440 C.ar  345  TYR345     -0.0009
    184  CE1      159.4450  143.1370   17.7510 C.ar  345  TYR345      0.0417
    185  CE2      159.4230  141.1520   19.1210 C.ar  345  TYR345      0.0417
    186  CZ       158.7510  142.1720   18.4790 C.ar  345  TYR345      0.1957
    187  OH       157.3800  142.2320   18.5450 O.3   345  TYR345     -0.2866
    188  N        166.1790  145.1490   13.3400 N.3   349  LEU349     -0.1245
    189  CA       166.7310  146.2460   14.1120 C.3   349  LEU349      0.1561
    190  C        168.1950  146.5410   13.7480 C.2   349  LEU349      0.2260
    191  O        168.8960  147.2470   14.4750 O.2   349  LEU349     -0.2867
    192  CB       166.5860  145.9500   15.6010 C.3   349  LEU349      0.0270
    193  CG       165.1880  146.3000   16.1310 C.3   349  LEU349      0.0019
    194  CD1      164.7630  145.3660   17.2310 C.3   349  LEU349      0.0001
    195  CD2      165.2230  147.7440   16.6220 C.3   349  LEU349      0.0001
@<TRIPOS>BOND
     1    15    16    1
     2    17    18    2
     3    17    16    1
     4    16    19    1
     5     6     7    1
     6     7     8    1
     7     7    10    1
     8     3     4    2
     9     3     2    1
    10   188   189    1
    11    23    24    1
    12    19    20    1
    13     8     9    2
    14     1     2    1
    15     2     5    1
    16   190   189    1
    17   190   191    2
    18    22    20   ar
    19    10    11    1
    20   189   192    1
    21    20    21   ar
    22    24    27    1
    23    24    25    1
    24    32    33    1
    25    32    29    1
    26    11    12    1
    27    28    25   am
    28    28    29    1
    29    14    13    1
    30   123   122    2
    31    31    30    2
    32    35    33   ar
    33    35    37   ar
    34    25    26    2
    35   192   193    1
    36    33    34   ar
    37    12    13    1
    38    29    30    1
    39   130   129    2
    40   193   195    1
    41   193   194    1
    42    37    36   ar
    43   176   177    1
    44   128   129    1
    45   128   127    1
    46   125   126    1
    47   125   124    1
    48   126   120    1
    49    34    36   ar
    50   122   127   am
    51   122   121    1
    52   178   177    1
    53   178   179    2
    54   177   180    1
    55   129   131   am
    56   112   115    1
    57   112   113    1
    58   112   111    1
    59   116   115    1
    60   116   117    1
    61   120   113   am
    62   120   121    1
    63   113   114    2
    64   119   117   ar
    65   124   121    1
    66   182   184   ar
    67   182   181   ar
    68   184   186   ar
    69   117   118   ar
    70   131   132    1
    71   180   181    1
    72   134   133    2
    73   181   183   ar
    74   132   133    1
    75   132   135    1
    76   147   146    1
    77   186   187    1
    78   186   185   ar
    79   146   143    1
    80   142   143    1
    81   183   185   ar
    82   135   136    1
    83   143   144    1
    84   155   153   am
    85    74    72   ar
    86    74    73   ar
    87    72    70   ar
    88   153   154    2
    89   153   152    1
    90   136   137    1
    91   148   144   am
    92   148   149    1
    93   144   145    2
    94    96    95    1
    95    96    97    1
    96   165   163   ar
    97   165   166   ar
    98    47    46    1
    99    73    71   ar
   100   152   149    1
   101   106   105    2
   102    70    69   ar
   103    82    84   ar
   104    82    80   ar
   105   163   161   ar
   106    84    83   ar
   107   166   164   ar
   108    38    39    1
   109   149   150    1
   110    42    39    1
   111    42    43    1
   112   137   138    1
   113    44    43    1
   114    44    45    1
   115   138   139    2
   116   140   139    1
   117   175   173   ar
   118   139   141    1
   119    90    89    1
   120    99    97   am
   121    99   100    1
   122    97    98    2
   123    71    69   ar
   124    46    45    2
   125    46    48    1
   126    69    68    1
   127    39    40    1
   128   161   160    1
   129   161   162   ar
   130   105   104    1
   131   164   162   ar
   132    80    79    1
   133    80    81   ar
   134   173   174   ar
   135   173   172    1
   136   107   104    1
   137   107   108    1
   138    83    81   ar
   139   109   108    1
   140   103   104    1
   141   103   101   am
   142   150   151    2
   143   160   157    1
   144    89    86    1
   145    79    76    1
   146   100   101    1
   147    68    65    1
   148   172   171    1
   149   108   110    1
   150   101   102    2
   151    62    61    1
   152    63    61    1
   153    40    41    2
   154    86    87    1
   155    86    85    1
   156   156   157    1
   157    76    75    1
   158    76    77    1
   159   157   158    1
   160    65    64    1
   161    65    66    1
   162   171   168    1
   163    61    60    1
   164    54    53    1
   165    91    87   am
   166    91    92    1
   167    55    53    1
   168    87    88    2
   169   167   158   am
   170   167   168    1
   171   158   159    2
   172    53    50    1
   173    66    67    2
   174    60    57    1
   175    92    93    1
   176   168   169    1
   177    77    78    2
   178    59    58    2
   179    57    58    1
   180    57    56    1
   181    52    51    2
   182   169   170    2
   183    50    51    1
   184    50    49    1
   185    93    94    2
