@<TRIPOS>MOLECULE
tmp/2nvcA01.pdb
 171 175 0 0 0
SMALL
GASTEIGER

@<TRIPOS>ATOM
      1  N        -21.7420    6.4660  -21.4610 N.3    20  TRP20      -0.1241
      2  CA       -22.1940    6.7870  -20.1180 C.3    20  TRP20       0.1605
      3  C        -23.6780    7.2070  -20.1700 C.2    20  TRP20       0.2264
      4  O        -24.0020    8.1030  -20.9320 O.2    20  TRP20      -0.2867
      5  CB       -21.3650    7.8890  -19.4520 C.3    20  TRP20       0.0550
      6  CG       -21.8180    8.2590  -18.0760 C.ar   20  TRP20       0.0003
      7  CD1      -22.3190    7.4280  -17.1160 C.ar   20  TRP20       0.0946
      8  CD2      -21.8160    9.5820  -17.4930 C.ar   20  TRP20       0.0152
      9  NE1      -22.6210    8.1540  -15.9870 N.ar   20  TRP20      -0.2442
     10  CE2      -22.3260    9.4760  -16.1870 C.ar   20  TRP20       0.0810
     11  CE3      -21.4240   10.8330  -17.9720 C.ar   20  TRP20       0.0012
     12  CZ2      -22.4490   10.5950  -15.3620 C.ar   20  TRP20       0.0191
     13  CZ3      -21.5490   11.9450  -17.1510 C.ar   20  TRP20       0.0001
     14  CH2      -22.0600   11.8140  -15.8590 C.ar   20  TRP20       0.0015
     15  N        -18.3830    0.8430  -14.8490 N.3    47  VAL47      -0.1231
     16  CA       -19.3280    1.5390  -13.9870 C.3    47  VAL47       0.1692
     17  C        -20.5700    1.9960  -14.7380 C.2    47  VAL47       0.2592
     18  O        -21.5510    2.3840  -14.1040 O.2    47  VAL47      -0.2718
     19  CB       -18.6060    2.7150  -13.2890 C.3    47  VAL47       0.0266
     20  CG1      -18.4560    3.8770  -14.2510 C.3    47  VAL47       0.0020
     21  CG2      -19.3440    3.1350  -12.0250 C.3    47  VAL47       0.0020
     22  N        -20.5360    1.9310  -16.0900 N.am   48  TYR48      -0.1962
     23  CA       -21.6870    2.3450  -16.8680 C.3    48  TYR48       0.1771
     24  C        -22.7520    1.2540  -16.8910 C.2    48  TYR48       0.2619
     25  O        -23.8390    1.5310  -17.3750 O.2    48  TYR48      -0.2715
     26  CB       -21.2870    2.7300  -18.2990 C.3    48  TYR48       0.0574
     27  CG       -20.2710    3.8540  -18.3810 C.ar   48  TYR48      -0.0198
     28  CD1      -19.9840    4.6940  -17.3050 C.ar   48  TYR48      -0.0009
     29  CD2      -19.5810    4.0640  -19.5680 C.ar   48  TYR48      -0.0009
     30  CE1      -19.0430    5.7140  -17.4160 C.ar   48  TYR48       0.0417
     31  CE2      -18.6440    5.0810  -19.6900 C.ar   48  TYR48       0.0417
     32  CZ       -18.3780    5.9000  -18.6110 C.ar   48  TYR48       0.1957
     33  OH       -17.4360    6.9060  -18.7510 O.3    48  TYR48      -0.2866
     34  N        -22.4340    0.0650  -16.3660 N.am   49  GLN49      -0.1977
     35  CA       -23.4100   -0.9890  -16.1470 C.3    49  GLN49       0.1601
     36  C        -24.1630   -1.4010  -17.3980 C.2    49  GLN49       0.2287
     37  O        -25.3040   -1.8570  -17.3410 O.2    49  GLN49      -0.2864
     38  CB       -24.4540   -0.5450  -15.1300 C.3    49  GLN49       0.0394
     39  CG       -23.9780   -0.3040  -13.7170 C.3    49  GLN49       0.0908
     40  CD       -25.1490    0.2560  -12.8940 C.2    49  GLN49       0.2608
     41  OE1      -25.2430    1.4670  -12.6930 O.2    49  GLN49      -0.2717
     42  NE2      -26.0080   -0.6600  -12.4620 N.am   49  GLN49      -0.0878
     43  N        -12.7730    0.7910  -12.6730 N.3    79  TRP79      -0.1241
     44  CA       -13.4870    1.5670  -11.6740 C.3    79  TRP79       0.1605
     45  C        -12.7320    1.6740  -10.3490 C.2    79  TRP79       0.2264
     46  O        -11.7990    0.9440  -10.0040 O.2    79  TRP79      -0.2867
     47  CB       -14.9570    1.0070  -11.5650 C.3    79  TRP79       0.0550
     48  CG       -15.6720    1.9340  -10.6250 C.ar   79  TRP79       0.0003
     49  CD1      -16.1840    1.6360   -9.3910 C.ar   79  TRP79       0.0946
     50  CD2      -15.9090    3.3370  -10.8290 C.ar   79  TRP79       0.0152
     51  NE1      -16.7330    2.7600   -8.8380 N.ar   79  TRP79      -0.2442
     52  CE2      -16.5860    3.8200   -9.6900 C.ar   79  TRP79       0.0810
     53  CE3      -15.6260    4.2450  -11.8620 C.ar   79  TRP79       0.0012
     54  CZ2      -16.9750    5.1530   -9.5730 C.ar   79  TRP79       0.0191
     55  CZ3      -16.0110    5.5710  -11.7560 C.ar   79  TRP79       0.0001
     56  CH2      -16.6870    6.0170  -10.6020 C.ar   79  TRP79       0.0015
     57  N         -9.9380    4.8590  -14.3830 N.3   110  HIS110     -0.1226
     58  CA       -11.0550    5.7770  -14.5860 C.3   110  HIS110      0.1752
     59  C        -10.9310    7.0960  -13.8420 C.2   110  HIS110      0.2596
     60  O        -11.2230    8.1870  -14.3660 O.2   110  HIS110     -0.2718
     61  CB       -12.3220    5.0050  -14.1660 C.3   110  HIS110      0.0759
     62  CG       -13.5430    5.5590  -14.8240 C.ar  110  HIS110      0.0818
     63  ND1      -14.6050    4.7430  -15.1670 N.ar  110  HIS110     -0.2268
     64  CD2      -13.8910    6.7900  -15.2460 C.ar  110  HIS110      0.1154
     65  CE1      -15.5380    5.4660  -15.7550 C.ar  110  HIS110      0.1986
     66  NE2      -15.1410    6.7200  -15.8010 N.ar  110  HIS110     -0.2212
     67  N        -10.5200    7.0320  -12.5960 N.am  111  TRP111     -0.1976
     68  CA       -10.2370    8.1560  -11.7280 C.3   111  TRP111      0.1640
     69  C         -9.0070    7.8640  -10.8890 C.2   111  TRP111      0.2290
     70  O         -8.7300    6.6990  -10.5770 O.2   111  TRP111     -0.2864
     71  CB       -11.4110    8.4090  -10.7930 C.3   111  TRP111      0.0576
     72  CG       -12.6280    8.9610  -11.4390 C.ar  111  TRP111      0.0006
     73  CD1      -13.6180    8.1890  -11.9760 C.ar  111  TRP111      0.0946
     74  CD2      -13.0190   10.3290  -11.6500 C.ar  111  TRP111      0.0152
     75  NE1      -14.5950    8.9920  -12.4970 N.ar  111  TRP111     -0.2442
     76  CE2      -14.2580   10.3000  -12.3140 C.ar  111  TRP111      0.0810
     77  CE3      -12.4500   11.5630  -11.3470 C.ar  111  TRP111      0.0012
     78  CZ2      -14.9610   11.4430  -12.6900 C.ar  111  TRP111      0.0191
     79  CZ3      -13.1350   12.7150  -11.7080 C.ar  111  TRP111      0.0001
     80  CH2      -14.3610   12.6370  -12.3630 C.ar  111  TRP111      0.0015
     81  N        -20.5290    1.0260   -5.9690 N.3   121  PHE121     -0.1227
     82  CA       -19.6610    1.7880   -6.8380 C.3   121  PHE121      0.1736
     83  C        -19.1830    3.0750   -6.1690 C.2   121  PHE121      0.2595
     84  O        -18.0410    3.4920   -6.3740 O.2   121  PHE121     -0.2718
     85  CB       -20.3400    2.1790   -8.1470 C.3   121  PHE121      0.0547
     86  CG       -20.5640    1.0360   -9.1070 C.ar  121  PHE121     -0.0202
     87  CD1      -19.7210   -0.0620   -9.1940 C.ar  121  PHE121     -0.0042
     88  CD2      -21.6660    1.0860   -9.9380 C.ar  121  PHE121     -0.0042
     89  CE1      -19.9650   -1.0820  -10.0920 C.ar  121  PHE121     -0.0003
     90  CE2      -21.8990    0.0850  -10.8610 C.ar  121  PHE121     -0.0003
     91  CZ       -21.0500   -0.9900  -10.9480 C.ar  121  PHE121     -0.0000
     92  N        -20.0780    3.6520   -5.3710 N.am  122  PHE122     -0.1976
     93  CA       -19.7190    4.7960   -4.5430 C.3   122  PHE122      0.1639
     94  C        -19.9910    4.5310   -3.0670 C.2   122  PHE122      0.2290
     95  O        -21.0230    4.9340   -2.5340 O.2   122  PHE122     -0.2864
     96  CB       -20.4860    6.0500   -4.9510 C.3   122  PHE122      0.0560
     97  CG       -19.8360    6.7620   -6.1310 C.ar  122  PHE122     -0.0200
     98  CD1      -19.0090    7.8410   -5.9460 C.ar  122  PHE122     -0.0042
     99  CD2      -20.1000    6.2760   -7.3990 C.ar  122  PHE122     -0.0042
    100  CE1      -18.4310    8.4800   -7.0400 C.ar  122  PHE122     -0.0003
    101  CE2      -19.5550    6.9070   -8.5000 C.ar  122  PHE122     -0.0003
    102  CZ       -18.7350    7.9970   -8.3010 C.ar  122  PHE122     -0.0000
    103  N         -8.9680   11.7320  -15.8410 N.3   160  ASN160     -0.1240
    104  CA        -9.2110   12.6730  -14.7630 C.3   160  ASN160      0.1653
    105  C         -7.9970   12.8110  -13.8500 C.2   160  ASN160      0.2266
    106  O         -8.1840   13.0090  -12.6550 O.2   160  ASN160     -0.2867
    107  CB       -10.4150   12.2650  -13.9120 C.3   160  ASN160      0.1155
    108  CG       -11.6900   12.1840  -14.7060 C.2   160  ASN160      0.2627
    109  OD1      -12.2010   13.1580  -15.2670 O.2   160  ASN160     -0.2716
    110  ND2      -12.1950   10.9680  -14.8160 N.am  160  ASN160     -0.0877
    111  N        -13.9140   14.2870  -23.0870 N.3   209  TYR209     -0.1241
    112  CA       -15.2460   13.7830  -22.7720 C.3   209  TYR209      0.1605
    113  C        -16.2330   14.9070  -22.5040 C.2   209  TYR209      0.2264
    114  O        -15.8510   16.0550  -22.2900 O.2   209  TYR209     -0.2867
    115  CB       -15.1070   12.8450  -21.6050 C.3   209  TYR209      0.0534
    116  CG       -14.9840   13.1640  -20.1580 C.ar  209  TYR209     -0.0201
    117  CD1      -15.8970   13.8950  -19.4200 C.ar  209  TYR209     -0.0009
    118  CD2      -13.8900   12.6590  -19.4730 C.ar  209  TYR209     -0.0009
    119  CE1      -15.7200   14.1560  -18.0830 C.ar  209  TYR209      0.0417
    120  CE2      -13.6780   12.8610  -18.1160 C.ar  209  TYR209      0.0417
    121  CZ       -14.6260   13.6200  -17.4500 C.ar  209  TYR209      0.1957
    122  OH       -14.5220   13.8670  -16.1100 O.3   209  TYR209     -0.2866
    123  N        -26.7090   13.5360  -14.3810 N.3   218  PRO218     -0.2102
    124  CA       -27.7860   13.4260  -13.3840 C.3   218  PRO218      0.1504
    125  C        -27.8810   14.5770  -12.3920 C.2   218  PRO218      0.2575
    126  O        -28.8730   14.6420  -11.6600 O.2   218  PRO218     -0.2718
    127  CB       -27.4530   12.1510  -12.5970 C.3   218  PRO218      0.0282
    128  CG       -26.3240   11.4970  -13.3030 C.3   218  PRO218      0.0208
    129  CD       -25.6650   12.5340  -14.1610 C.3   218  PRO218      0.0893
    130  N        -26.9150   15.4850  -12.2970 N.am  219  TRP219     -0.1977
    131  CA       -27.0530   16.5320  -11.2850 C.3   219  TRP219      0.1640
    132  C        -27.2650   17.9110  -11.8980 C.2   219  TRP219      0.2290
    133  O        -27.0260   18.9430  -11.2790 O.2   219  TRP219     -0.2864
    134  CB       -25.7920   16.5660  -10.4170 C.3   219  TRP219      0.0576
    135  CG       -24.5820   16.3510  -11.2760 C.ar  219  TRP219      0.0006
    136  CD1      -23.9240   17.2970  -12.0060 C.ar  219  TRP219      0.0946
    137  CD2      -23.9110   15.1020  -11.4820 C.ar  219  TRP219      0.0152
    138  NE1      -22.8640   16.7040  -12.6620 N.ar  219  TRP219     -0.2442
    139  CE2      -22.8380   15.3640  -12.3560 C.ar  219  TRP219      0.0810
    140  CE3      -24.1200   13.8010  -11.0060 C.ar  219  TRP219      0.0012
    141  CZ2      -21.9560   14.3600  -12.7780 C.ar  219  TRP219      0.0191
    142  CZ3      -23.2480   12.8100  -11.4240 C.ar  219  TRP219      0.0001
    143  CH2      -22.1930   13.0990  -12.2930 C.ar  219  TRP219      0.0015
    144  N        -18.3070   16.9670  -14.5240 N.3   298  CYS298     -0.1235
    145  CA       -17.8740   15.8680  -13.6890 C.3   298  CYS298      0.1677
    146  C        -16.8400   16.3650  -12.6990 C.2   298  CYS298      0.2270
    147  O        -15.6510   16.4260  -12.9700 O.2   298  CYS298     -0.2867
    148  CB       -17.2670   14.7430  -14.5370 C.3   298  CYS298      0.0956
    149  SG       -18.5370   13.8130  -15.4250 S.3   298  CYS298     -0.0801
    150  N        -16.9190   15.2340   -9.3590 N.3   300  LEU300     -0.1231
    151  CA       -16.7440   14.2240   -8.3130 C.3   300  LEU300      0.1693
    152  C        -16.7620   14.8360   -6.9170 C.2   300  LEU300      0.2592
    153  O        -15.8500   14.6300   -6.1130 O.2   300  LEU300     -0.2718
    154  CB       -15.4250   13.4900   -8.5590 C.3   300  LEU300      0.0284
    155  CG       -15.3290   12.1260   -7.8850 C.3   300  LEU300      0.0019
    156  CD1      -16.1520   11.1000   -8.6400 C.3   300  LEU300      0.0001
    157  CD2      -13.8720   11.6780   -7.7980 C.3   300  LEU300      0.0001
    158  N        -17.7910   15.6330   -6.6720 N.am  301  LEU301     -0.1966
    159  CA       -17.8900   16.4490   -5.4760 C.3   301  LEU301      0.1728
    160  C        -18.0170   15.6250   -4.1970 C.2   301  LEU301      0.2616
    161  O        -17.6920   16.1770   -3.1350 O.2   301  LEU301     -0.2715
    162  CB       -19.0640   17.4350   -5.6050 C.3   301  LEU301      0.0311
    163  CG       -18.8460   18.5550   -6.6220 C.3   301  LEU301      0.0022
    164  CD1      -20.0970   19.3950   -6.8220 C.3   301  LEU301      0.0001
    165  CD2      -17.6970   19.4740   -6.2090 C.3   301  LEU301      0.0001
    166  N        -18.4100   14.3740   -4.3080 N.am  302  SER302     -0.1950
    167  CA       -18.4240   13.4160   -3.1990 C.3   302  SER302      0.1924
    168  C        -17.0360   12.9910   -2.7450 C.2   302  SER302      0.2314
    169  O        -16.8960   12.3400   -1.7030 O.2   302  SER302     -0.2863
    170  CB       -19.1920   12.1690   -3.6200 C.3   302  SER302      0.2116
    171  OG       -18.5350   11.4820   -4.6820 O.3   302  SER302     -0.2180
@<TRIPOS>BOND
     1   111   112    1
     2   112   113    1
     3   112   115    1
     4   113   114    2
     5   115   116    1
     6     1     2    1
     7     4     3    2
     8     3     2    1
     9   116   118   ar
    10   116   117   ar
    11     2     5    1
    12    31    29   ar
    13    31    32   ar
    14    29    27   ar
    15   118   120   ar
    16     5     6    1
    17   117   119   ar
    18    33    32    1
    19    32    30   ar
    20    27    26    1
    21    27    28   ar
    22    26    23    1
    23   120   121   ar
    24   119   121   ar
    25     6     8   ar
    26     6     7   ar
    27    11     8   ar
    28    11    13   ar
    29     8    10   ar
    30   121   122    1
    31    30    28   ar
    32    36    37    2
    33    36    35    1
    34    25    24    2
    35    13    14   ar
    36     7     9   ar
    37    24    23    1
    38    24    34   am
    39    23    22    1
    40    34    35    1
    41    10     9   ar
    42    10    12   ar
    43    35    38    1
    44    22    17   am
    45    14    12   ar
    46   103   104    1
    47    66    65   ar
    48    66    64   ar
    49    65    63   ar
    50   149   148    1
    51   109   108    2
    52    64    62   ar
    53    63    62   ar
    54    38    39    1
    55    15    16    1
    56    62    61    1
    57   110   108   am
    58   104   107    1
    59   104   105    1
    60    17    18    2
    61    17    16    1
    62   108   107    1
    63    58    57    1
    64    58    61    1
    65    58    59    1
    66   148   145    1
    67   144   145    1
    68   123   129    1
    69   123   124    1
    70    60    59    2
    71    20    19    1
    72   129   128    1
    73    16    19    1
    74   105   106    2
    75    59    67   am
    76    39    40    1
    77   145   146    1
    78   124   127    1
    79   124   125    1
    80   128   127    1
    81    19    21    1
    82   147   146    2
    83    40    41    2
    84    40    42   am
    85   141   139   ar
    86   141   143   ar
    87    78    80   ar
    88    78    76   ar
    89    43    44    1
    90   138   139   ar
    91   138   136   ar
    92    67    68    1
    93    75    76   ar
    94    75    73   ar
    95   125   130   am
    96   125   126    2
    97    80    79   ar
    98   139   137   ar
    99    76    74   ar
   100   130   131    1
   101   143   142   ar
   102   136   135   ar
   103    73    72   ar
   104   132   131    1
   105   132   133    2
   106    53    55   ar
   107    53    50   ar
   108    55    56   ar
   109    68    69    1
   110    68    71    1
   111    79    77   ar
   112    44    47    1
   113    44    45    1
   114    74    72   ar
   115    74    77   ar
   116    47    48    1
   117   137   135   ar
   118   137   140   ar
   119    72    71    1
   120   142   140   ar
   121   131   134    1
   122   135   134    1
   123    91    90   ar
   124    91    89   ar
   125    69    70    2
   126    90    88   ar
   127    50    48   ar
   128    50    52   ar
   129    48    49   ar
   130    56    54   ar
   131    45    46    2
   132    89    87   ar
   133    88    86   ar
   134    52    54   ar
   135    52    51   ar
   136    49    51   ar
   137   150   151    1
   138    87    86   ar
   139    86    85    1
   140   156   155    1
   141   154   151    1
   142   154   155    1
   143   101   102   ar
   144   101    99   ar
   145   151   152    1
   146   102   100   ar
   147    85    82    1
   148   155   157    1
   149    99    97   ar
   150   100    98   ar
   151   152   158   am
   152   152   153    2
   153    82    83    1
   154    82    81    1
   155   164   163    1
   156   158   159    1
   157   163   165    1
   158   163   162    1
   159    84    83    2
   160    83    92   am
   161    97    98   ar
   162    97    96    1
   163   162   159    1
   164   159   160    1
   165    92    93    1
   166    96    93    1
   167   171   170    1
   168    93    94    1
   169   166   160   am
   170   166   167    1
   171   160   161    2
   172   170   167    1
   173   167   168    1
   174    94    95    2
   175   168   169    2
