@<TRIPOS>MOLECULE
tmp/2nvdA01.pdb
 154 155 0 0 0
SMALL
GASTEIGER

@<TRIPOS>ATOM
      1  N         15.5310   -8.6770   25.3400 N.3    20  TRP20      -0.1227
      2  CA        16.0000   -9.3620   24.1370 C.3    20  TRP20       0.1737
      3  C         17.0300  -10.4030   24.5670 C.2    20  TRP20       0.2595
      4  O         17.9490  -10.1360   25.3660 O.2    20  TRP20      -0.2718
      5  CB        16.6640   -8.4030   23.1630 C.3    20  TRP20       0.0564
      6  CG        17.1490   -9.0830   21.9020 C.ar   20  TRP20       0.0003
      7  CD1       16.4300   -9.6050   20.8620 C.ar   20  TRP20       0.0946
      8  CD2       18.5130   -9.3260   21.5470 C.ar   20  TRP20       0.0152
      9  NE1       17.2650  -10.1460   19.8920 N.ar   20  TRP20      -0.2442
     10  CE2       18.5450   -9.9820   20.3040 C.ar   20  TRP20       0.0810
     11  CE3       19.7370   -9.0530   22.1650 C.ar   20  TRP20       0.0012
     12  CZ2       19.7210  -10.3680   19.6590 C.ar   20  TRP20       0.0191
     13  CZ3       20.9130   -9.4260   21.5490 C.ar   20  TRP20       0.0001
     14  CH2       20.8920  -10.0770   20.3090 C.ar   20  TRP20       0.0015
     15  N         16.8930  -11.5990   24.0440 N.am   21  LYS21      -0.1980
     16  CA        17.7390  -12.7420   24.3660 C.3    21  LYS21       0.1596
     17  C         17.7050  -13.1220   25.8240 C.2    21  LYS21       0.2287
     18  O         18.5930  -13.8060   26.3310 O.2    21  LYS21      -0.2864
     19  CB        19.1400  -12.4560   23.8180 C.3    21  LYS21       0.0298
     20  CG        19.3220  -13.0330   22.3950 C.3    21  LYS21       0.0038
     21  CD        20.4560  -14.0440   22.3860 C.3    21  LYS21       0.0206
     22  CE        20.3330  -15.0630   21.2640 C.3    21  LYS21       0.1093
     23  NZ        19.7330  -14.5060   20.0210 N.3    21  LYS21      -0.1314
     24  N          8.7890  -10.0980   18.8150 N.3    47  VAL47      -0.1231
     25  CA         9.8250  -10.8520   18.1200 C.3    47  VAL47       0.1692
     26  C         10.7720  -11.5390   19.0770 C.2    47  VAL47       0.2592
     27  O         11.4880  -12.4610   18.6910 O.2    47  VAL47      -0.2718
     28  CB        10.5710   -9.9050   17.1610 C.3    47  VAL47       0.0266
     29  CG1       11.5380   -8.9980   17.9020 C.3    47  VAL47       0.0020
     30  CG2       11.3100  -10.6660   16.0490 C.3    47  VAL47       0.0020
     31  N         10.7950  -11.1440   20.3520 N.am   48  TYR48      -0.1976
     32  CA        11.6980  -11.8020   21.2930 C.3    48  TYR48       0.1639
     33  C         11.2080  -13.1850   21.7250 C.2    48  TYR48       0.2290
     34  O         12.0030  -13.9280   22.2800 O.2    48  TYR48      -0.2864
     35  CB        11.8890  -10.9540   22.5610 C.3    48  TYR48       0.0560
     36  CG        12.4100   -9.5490   22.3670 C.ar   48  TYR48      -0.0198
     37  CD1       12.9800   -9.1200   21.1630 C.ar   48  TYR48      -0.0009
     38  CD2       12.3450   -8.6190   23.4130 C.ar   48  TYR48      -0.0009
     39  CE1       13.4470   -7.8120   21.0530 C.ar   48  TYR48       0.0417
     40  CE2       12.8080   -7.3330   23.2580 C.ar   48  TYR48       0.0417
     41  CZ        13.3660   -6.9150   22.0750 C.ar   48  TYR48       0.1957
     42  OH        13.8210   -5.6160   21.9710 O.3    48  TYR48      -0.2866
     43  N          6.2920   -5.7830   15.3170 N.3    79  TRP79      -0.1241
     44  CA         7.3460   -6.3540   14.4670 C.3    79  TRP79       0.1605
     45  C          7.1260   -5.9720   13.0090 C.2    79  TRP79       0.2264
     46  O          6.0130   -5.5250   12.6090 O.2    79  TRP79      -0.2867
     47  CB         7.4700   -7.8690   14.7800 C.3    79  TRP79       0.0550
     48  CG         8.6110   -8.3630   13.9060 C.ar   79  TRP79       0.0003
     49  CD1        8.5770   -9.2000   12.8630 C.ar   79  TRP79       0.0946
     50  CD2        9.9860   -7.9800   13.9910 C.ar   79  TRP79       0.0152
     51  NE1        9.7780   -9.4170   12.2620 N.ar   79  TRP79      -0.2442
     52  CE2       10.6810   -8.6580   12.9760 C.ar   79  TRP79       0.0810
     53  CE3       10.7050   -7.1400   14.8390 C.ar   79  TRP79       0.0012
     54  CZ2       12.0480   -8.5300   12.7730 C.ar   79  TRP79       0.0191
     55  CZ3       12.0540   -7.0170   14.6450 C.ar   79  TRP79       0.0001
     56  CH2       12.7210   -7.7030   13.6300 C.ar   79  TRP79       0.0015
     57  N          8.9440   -1.2470   15.7460 N.3   110  HIS110     -0.1226
     58  CA        10.2670   -1.7790   16.1100 C.3   110  HIS110      0.1752
     59  C         11.3870   -1.3370   15.1830 C.2   110  HIS110      0.2596
     60  O         12.4830   -1.0590   15.6880 O.2   110  HIS110     -0.2718
     61  CB        10.2110   -3.3040   16.1560 C.3   110  HIS110      0.0759
     62  CG        11.2000   -4.0120   16.9970 C.ar  110  HIS110      0.0818
     63  ND1       10.8810   -5.1490   17.6890 N.ar  110  HIS110     -0.2268
     64  CD2       12.5170   -3.7670   17.2520 C.ar  110  HIS110      0.1154
     65  CE1       11.9360   -5.5830   18.3400 C.ar  110  HIS110      0.1986
     66  NE2       12.9570   -4.7590   18.0950 N.ar  110  HIS110     -0.2212
     67  N         11.0580   -1.3080   13.8890 N.am  111  TRP111     -0.1976
     68  CA        11.9610   -0.8210   12.8390 C.3   111  TRP111      0.1640
     69  C         11.1550   -0.0900   11.7890 C.2   111  TRP111      0.2290
     70  O          9.9810   -0.4710   11.5850 O.2   111  TRP111     -0.2864
     71  CB        12.6810   -1.9760   12.1460 C.3   111  TRP111      0.0576
     72  CG        13.6610   -2.7140   13.0230 C.ar  111  TRP111      0.0006
     73  CD1       13.3970   -3.7370   13.8740 C.ar  111  TRP111      0.0946
     74  CD2       15.0670   -2.4650   13.1290 C.ar  111  TRP111      0.0152
     75  NE1       14.5610   -4.1480   14.5020 N.ar  111  TRP111     -0.2442
     76  CE2       15.6030   -3.3760   14.0600 C.ar  111  TRP111      0.0810
     77  CE3       15.9540   -1.5630   12.5350 C.ar  111  TRP111      0.0012
     78  CZ2       16.9520   -3.4030   14.3990 C.ar  111  TRP111      0.0191
     79  CZ3       17.2910   -1.5900   12.8650 C.ar  111  TRP111      0.0001
     80  CH2       17.7920   -2.5040   13.7950 C.ar  111  TRP111      0.0015
     81  N         11.4570  -12.9570    9.3360 N.3   122  PHE122     -0.1241
     82  CA        12.3290  -12.4370    8.2950 C.3   122  PHE122      0.1605
     83  C         12.0970  -13.2240    7.0120 C.2   122  PHE122      0.2264
     84  O         12.7870  -14.1950    6.6980 O.2   122  PHE122     -0.2867
     85  CB        13.7910  -12.5390    8.7000 C.3   122  PHE122      0.0534
     86  CG        14.2980  -11.4840    9.6480 C.ar  122  PHE122     -0.0203
     87  CD1       14.9240  -10.3590    9.1520 C.ar  122  PHE122     -0.0042
     88  CD2       14.1650  -11.6100   11.0180 C.ar  122  PHE122     -0.0042
     89  CE1       15.4090   -9.3840    9.9970 C.ar  122  PHE122     -0.0003
     90  CE2       14.6560  -10.6350   11.8750 C.ar  122  PHE122     -0.0003
     91  CZ        15.2650   -9.5340   11.3470 C.ar  122  PHE122     -0.0000
     92  N         19.2370    1.8610   23.8620 N.3   209  TYR209     -0.1227
     93  CA        19.3500    0.4120   23.9340 C.3   209  TYR209      0.1736
     94  C         20.7880   -0.0760   23.8250 C.2   209  TYR209      0.2596
     95  O         21.6380    0.6780   23.3640 O.2   209  TYR209     -0.2718
     96  CB        18.4170   -0.1220   22.8840 C.3   209  TYR209      0.0548
     97  CG        18.6220   -0.3250   21.4330 C.ar  209  TYR209     -0.0200
     98  CD1       19.7780   -0.8570   20.8410 C.ar  209  TYR209     -0.0009
     99  CD2       17.6390    0.0470   20.5170 C.ar  209  TYR209     -0.0009
    100  CE1       19.9210   -1.0370   19.5000 C.ar  209  TYR209      0.0417
    101  CE2       17.7540   -0.1310   19.1640 C.ar  209  TYR209      0.0417
    102  CZ        18.9050   -0.6410   18.6310 C.ar  209  TYR209      0.1957
    103  OH        19.1260   -0.8940   17.3220 O.3   209  TYR209     -0.2866
    104  N         21.0010   -1.3570   24.1430 N.am  210  SER210     -0.1952
    105  CA        22.3430   -1.9530   24.2130 C.3   210  SER210      0.1924
    106  C         23.3500   -1.0370   24.8680 C.2   210  SER210      0.2314
    107  O         24.4450   -0.7730   24.3370 O.2   210  SER210     -0.2863
    108  CB        22.7790   -2.3470   22.7890 C.3   210  SER210      0.2116
    109  OG        21.9000   -3.2640   22.1720 O.3   210  SER210     -0.2180
    110  N         25.7310   -4.9240   24.2730 N.3   214  SER214     -0.1217
    111  CA        25.1460   -6.2180   23.9650 C.3   214  SER214      0.1889
    112  C         26.1640   -7.3420   23.8620 C.2   214  SER214      0.2288
    113  O         26.3050   -7.9620   22.8160 O.2   214  SER214     -0.2866
    114  CB        24.3900   -6.1120   22.6260 C.3   214  SER214      0.2089
    115  OG        23.4510   -7.1640   22.4990 O.3   214  SER214     -0.2183
    116  N         25.2090  -10.7130   22.1930 N.3   217  ARG217     -0.1231
    117  CA        24.6740  -10.7970   20.8340 C.3   217  ARG217      0.1679
    118  C         25.3380  -11.9650   20.1190 C.2   217  ARG217      0.2434
    119  O         26.4670  -12.3360   20.4580 O.2   217  ARG217     -0.2733
    120  CB        24.8840   -9.4870   20.0970 C.3   217  ARG217      0.0321
    121  CG        26.3080   -9.2580   19.6480 C.3   217  ARG217      0.0489
    122  CD        26.5940   -7.7780   19.4210 C.3   217  ARG217      0.2205
    123  NE        27.9930   -7.6650   18.9880 N.pl3 217  ARG217     -0.0865
    124  CZ        29.0300   -7.5290   19.7840 C.cat 217  ARG217      0.5346
    125  NH1       28.9150   -7.4700   21.0990 N.pl3 217  ARG217      0.1354
    126  NH2       30.2510   -7.4370   19.2820 N.pl3 217  ARG217      0.1354
    127  N         24.6680  -12.5680   19.1360 N.am  218  PRO218     -0.2729
    128  CA        25.2380  -13.6760   18.3980 C.3   218  PRO218      0.1401
    129  C         26.6020  -13.2830   17.8290 C.2   218  PRO218      0.2269
    130  O         26.7430  -12.1870   17.2930 O.2   218  PRO218     -0.2865
    131  CB        24.3000  -13.8730   17.2090 C.3   218  PRO218      0.0296
    132  CG        23.0430  -13.1830   17.5510 C.3   218  PRO218      0.0237
    133  CD        23.3390  -12.1970   18.6490 C.3   218  PRO218      0.0939
    134  N         26.2250   -2.3160   17.0830 N.3   297  VAL297     -0.1231
    135  CA        26.1020   -3.7540   17.3180 C.3   297  VAL297      0.1692
    136  C         24.8040   -4.2860   16.7120 C.2   297  VAL297      0.2592
    137  O         24.7220   -5.4820   16.4140 O.2   297  VAL297     -0.2718
    138  CB        26.1820   -4.1160   18.8070 C.3   297  VAL297      0.0266
    139  CG1       27.3260   -3.3740   19.4650 C.3   297  VAL297      0.0020
    140  CG2       24.9230   -3.7560   19.5710 C.3   297  VAL297      0.0020
    141  N         23.8280   -3.4130   16.4980 N.am  298  CYS298     -0.1970
    142  CA        22.5210   -3.8220   15.9590 C.3   298  CYS298      0.1712
    143  C         22.2150   -3.1020   14.6640 C.2   298  CYS298      0.2296
    144  O         21.5320   -2.0810   14.5830 O.2   298  CYS298     -0.2864
    145  CB        21.4760   -3.5580   17.0550 C.3   298  CYS298      0.0983
    146  SG        19.8520   -4.2230   16.7490 S.3   298  CYS298     -0.0798
    147  N         20.9720   -4.5130   11.6040 N.3   300  LEU300     -0.1245
    148  CA        20.0370   -5.1120   10.6490 C.3   300  LEU300      0.1561
    149  C         20.6260   -5.3360    9.2600 C.2   300  LEU300      0.2260
    150  O         20.0170   -5.0380    8.2300 O.2   300  LEU300     -0.2867
    151  CB        18.7990   -4.2280   10.5650 C.3   300  LEU300      0.0270
    152  CG        17.4040   -4.7160   10.9440 C.3   300  LEU300      0.0019
    153  CD1       16.3940   -4.3370    9.8620 C.3   300  LEU300      0.0001
    154  CD2       17.3480   -6.2020   11.2360 C.3   300  LEU300      0.0001
@<TRIPOS>BOND
     1    84    83    2
     2    83    82    1
     3   150   149    2
     4    82    85    1
     5    82    81    1
     6    85    86    1
     7    87    86   ar
     8    87    89   ar
     9   149   148    1
    10    86    88   ar
    11   153   152    1
    12    89    91   ar
    13   151   148    1
    14   151   152    1
    15   148   147    1
    16   152   154    1
    17    88    90   ar
    18    91    90   ar
    19    70    69    2
    20    69    68    1
    21    71    68    1
    22    71    72    1
    23    51    49   ar
    24    51    52   ar
    25    77    79   ar
    26    77    74   ar
    27    46    45    2
    28    54    52   ar
    29    54    56   ar
    30    68    67    1
    31    49    48   ar
    32    79    80   ar
    33    52    50   ar
    34    45    44    1
    35    72    74   ar
    36    72    73   ar
    37    74    76   ar
    38    56    55   ar
    39    80    78   ar
    40    73    75   ar
    41    67    59   am
    42    48    50   ar
    43    48    47    1
    44    50    53   ar
    45    76    78   ar
    46    76    75   ar
    47    44    47    1
    48    44    43    1
    49   144   143    2
    50    55    53   ar
    51   143   142    1
    52    59    60    2
    53    59    58    1
    54    57    58    1
    55   142   141    1
    56   142   145    1
    57    30    28    1
    58    58    61    1
    59    61    62    1
    60   137   136    2
    61   141   136   am
    62   136   135    1
    63   146   145    1
    64    62    64   ar
    65    62    63   ar
    66   134   135    1
    67    28    29    1
    68    28    25    1
    69   131   132    1
    70   131   128    1
    71    64    66   ar
    72   130   129    2
    73   135   138    1
    74   103   102    1
    75   132   133    1
    76    63    65   ar
    77   129   128    1
    78    66    65   ar
    79    25    24    1
    80    25    26    1
    81   128   127    1
    82   102   101   ar
    83   102   100   ar
    84   133   127    1
    85    27    26    2
    86   138   139    1
    87   138   140    1
    88   123   122    1
    89   123   124    2
    90    26    31   am
    91   127   118   am
    92   101    99   ar
    93   126   124    1
    94   122   121    1
    95   100    98   ar
    96   121   120    1
    97    12    10   ar
    98    12    14   ar
    99   124   125    1
   100     9    10   ar
   101     9     7   ar
   102    23    22    1
   103   120   117    1
   104   118   119    2
   105   118   117    1
   106    10     8   ar
   107    14    13   ar
   108    31    32    1
   109    99    97   ar
   110   117   116    1
   111    98    97   ar
   112     7     6   ar
   113    39    37   ar
   114    39    41   ar
   115    37    36   ar
   116    22    21    1
   117    32    33    1
   118    32    35    1
   119    97    96    1
   120     8     6   ar
   121     8    11   ar
   122    13    11   ar
   123    33    34    2
   124     6     5    1
   125    42    41    1
   126    41    40   ar
   127   109   108    1
   128    36    35    1
   129    36    38   ar
   130    21    20    1
   131    20    19    1
   132   115   114    1
   133   114   111    1
   134   108   105    1
   135   113   112    2
   136    96    93    1
   137     5     2    1
   138    40    38   ar
   139    95    94    2
   140    19    16    1
   141    94    93    1
   142    94   104   am
   143    92    93    1
   144   112   111    1
   145   111   110    1
   146    15    16    1
   147    15     3   am
   148     2     3    1
   149     2     1    1
   150   104   105    1
   151   105   106    1
   152   107   106    2
   153    16    17    1
   154     3     4    2
   155    17    18    2
