@<TRIPOS>MOLECULE
tmp/2nvkA01.pdb
 187 181 0 0 0
SMALL
GASTEIGER

@<TRIPOS>ATOM
      1  N        115.5990   15.1300   58.7920 N.3   156  ARG156     -0.1245
      2  CA       115.5340   13.6760   58.7150 C.3   156  ARG156      0.1563
      3  C        116.8840   13.1090   58.2970 C.2   156  ARG156      0.2260
      4  O        117.6910   13.7910   57.6550 O.2   156  ARG156     -0.2867
      5  CB       114.4760   13.2240   57.7110 C.3   156  ARG156      0.0307
      6  CG       113.0230   13.4010   58.1280 C.3   156  ARG156      0.0489
      7  CD       112.0920   12.9180   56.9920 C.3   156  ARG156      0.2205
      8  NE       110.6620   13.0250   57.3100 N.pl3 156  ARG156     -0.0865
      9  CZ       109.9660   12.1400   58.0330 C.cat 156  ARG156      0.5346
     10  NH1      110.5550   11.0670   58.5590 N.pl3 156  ARG156      0.1354
     11  NH2      108.6710   12.3380   58.2470 N.pl3 156  ARG156      0.1354
     12  N        118.5810    9.5210   56.3900 N.3   158  PRO158     -0.2116
     13  CA       118.3000    8.2570   55.7070 C.3   158  PRO158      0.1372
     14  C        118.6510    7.0600   56.5920 C.2   158  PRO158      0.2244
     15  O        119.6150    7.1300   57.3640 O.2   158  PRO158     -0.2868
     16  CB       119.2160    8.3090   54.4810 C.3   158  PRO158      0.0268
     17  CG       120.3090    9.2330   54.8600 C.3   158  PRO158      0.0207
     18  CD       119.6790   10.2630   55.7420 C.3   158  PRO158      0.0892
     19  N        120.4010    4.3340   56.5820 N.3   160  ILE160     -0.1245
     20  CA       121.4850    3.8940   55.7120 C.3   160  ILE160      0.1561
     21  C        122.7870    3.9660   56.5040 C.2   160  ILE160      0.2260
     22  O        123.0080    4.9460   57.2260 O.2   160  ILE160     -0.2867
     23  CB       121.5160    4.7780   54.4270 C.3   160  ILE160      0.0252
     24  CG1      120.7990    4.0590   53.2840 C.3   160  ILE160      0.0019
     25  CG2      122.9330    5.1840   54.0120 C.3   160  ILE160      0.0019
     26  CD1      120.1180    5.0030   52.3130 C.3   160  ILE160      0.0001
     27  N        121.9840   15.8220   49.1680 N.3   186  VAL186     -0.1231
     28  CA       120.9350   14.8390   48.9070 C.3   186  VAL186      0.1692
     29  C        119.5840   15.4580   49.2730 C.2   186  VAL186      0.2593
     30  O        119.3100   15.7280   50.4360 O.2   186  VAL186     -0.2718
     31  CB       121.1870   13.4820   49.6500 C.3   186  VAL186      0.0266
     32  CG1      120.1020   12.4710   49.3210 C.3   186  VAL186      0.0020
     33  CG2      122.5450   12.9120   49.2880 C.3   186  VAL186      0.0020
     34  N        118.7600   15.6960   48.2610 N.am  187  GLY187     -0.1942
     35  CA       117.4830   16.3790   48.4270 C.3   187  GLY187      0.2014
     36  C        117.3700   17.5620   47.4850 C.2   187  GLY187      0.2639
     37  O        118.2290   18.4370   47.4720 O.2   187  GLY187     -0.2714
     38  N        116.3130   17.5840   46.6810 N.am  188  ALA188     -0.1963
     39  CA       116.0920   18.6780   45.7360 C.3   188  ALA188      0.1728
     40  C        114.8480   19.5260   46.0790 C.2   188  ALA188      0.2617
     41  O        114.2280   20.1510   45.2060 O.2   188  ALA188     -0.2715
     42  CB       116.0360   18.1410   44.3080 C.3   188  ALA188      0.0334
     43  N        114.4910   19.5340   47.3620 N.am  189  GLY189     -0.1940
     44  CA       113.5340   20.5100   47.8930 C.3   189  GLY189      0.2014
     45  C        114.2640   21.8350   47.9900 C.2   189  GLY189      0.2639
     46  O        115.4310   21.9300   47.5880 O.2   189  GLY189     -0.2714
     47  N        113.6090   22.8610   48.5270 N.am  190  TYR190     -0.1959
     48  CA       114.2410   24.1670   48.5510 C.3   190  TYR190      0.1771
     49  C        115.5090   24.2200   49.4090 C.2   190  TYR190      0.2619
     50  O        116.4900   24.8400   48.9960 O.2   190  TYR190     -0.2715
     51  CB       113.2500   25.2940   48.8610 C.3   190  TYR190      0.0574
     52  CG       112.8680   25.4660   50.3040 C.ar  190  TYR190     -0.0198
     53  CD1      111.7830   24.7840   50.8460 C.ar  190  TYR190     -0.0009
     54  CD2      113.5660   26.3500   51.1220 C.ar  190  TYR190     -0.0009
     55  CE1      111.4220   24.9570   52.1860 C.ar  190  TYR190      0.0417
     56  CE2      113.2210   26.5310   52.4550 C.ar  190  TYR190      0.0417
     57  CZ       112.1460   25.8330   52.9780 C.ar  190  TYR190      0.1957
     58  OH       111.7980   26.0280   54.2850 O.3   190  TYR190     -0.2866
     59  N        115.5140   23.5420   50.5580 N.am  191  ILE191     -0.1977
     60  CA       116.6840   23.5740   51.4470 C.3   191  ILE191      0.1596
     61  C        117.9480   23.0310   50.7510 C.2   191  ILE191      0.2287
     62  O        119.0400   23.5890   50.8990 O.2   191  ILE191     -0.2864
     63  CB       116.4320   22.8480   52.8120 C.3   191  ILE191      0.0276
     64  CG1      115.3840   23.5830   53.6390 C.3   191  ILE191      0.0022
     65  CG2      117.7120   22.7490   53.6380 C.3   191  ILE191      0.0022
     66  CD1      114.6930   22.6880   54.6630 C.3   191  ILE191      0.0001
     67  N        121.6510   15.5430   44.4980 N.3   209  MET209     -0.1230
     68  CA       121.1230   14.2180   44.2170 C.3   209  MET209      0.1702
     69  C        119.5980   14.2240   44.3520 C.2   209  MET209      0.2592
     70  O        119.0540   14.5800   45.4070 O.2   209  MET209     -0.2718
     71  CB       121.7600   13.1810   45.1490 C.3   209  MET209      0.0401
     72  CG       121.5090   11.7200   44.7410 C.3   209  MET209      0.0596
     73  SD       122.2300   10.4990   45.8620 S.3   209  MET209     -0.1393
     74  CE       123.9680   10.5840   45.4460 C.3   209  MET209      0.0692
     75  N        118.9240   13.8250   43.2740 N.am  210  VAL210     -0.1966
     76  CA       117.4600   13.8280   43.1670 C.3   210  VAL210      0.1727
     77  C        116.8930   12.3990   43.1700 C.2   210  VAL210      0.2616
     78  O        117.2600   11.6020   42.3180 O.2   210  VAL210     -0.2715
     79  CB       116.9980   14.5210   41.8390 C.3   210  VAL210      0.0290
     80  CG1      115.5170   14.8650   41.8950 C.3   210  VAL210      0.0023
     81  CG2      117.8160   15.7870   41.5460 C.3   210  VAL210      0.0023
     82  N        116.0020   12.0760   44.1100 N.am  211  ARG211     -0.1963
     83  CA       115.3410   10.7560   44.1090 C.3   211  ARG211      0.1729
     84  C        114.3650   10.5930   42.9380 C.2   211  ARG211      0.2617
     85  O        114.3790    9.5650   42.2450 O.2   211  ARG211     -0.2715
     86  CB       114.6360   10.4370   45.4440 C.3   211  ARG211      0.0348
     87  CG       113.8470    9.0940   45.4170 C.3   211  ARG211      0.0492
     88  CD       113.4380    8.6070   46.8090 C.3   211  ARG211      0.2205
     89  NE       112.5900    9.5840   47.4990 N.pl3 211  ARG211     -0.0865
     90  CZ       112.0500    9.4160   48.7040 C.cat 211  ARG211      0.5346
     91  NH1      112.2700    8.3090   49.4000 N.pl3 211  ARG211      0.1354
     92  NH2      111.2890   10.3730   49.2140 N.pl3 211  ARG211      0.1354
     93  N        113.5220   11.6030   42.7350 N.am  212  SER212     -0.1936
     94  CA       112.5510   11.6020   41.6500 C.3   212  SER212      0.2055
     95  C        112.6150   12.9200   40.8820 C.2   212  SER212      0.2642
     96  O        113.2470   12.9900   39.8270 O.2   212  SER212     -0.2714
     97  CB       111.1380   11.3500   42.1830 C.3   212  SER212      0.2130
     98  OG       110.7320   12.3900   43.0620 O.3   212  SER212     -0.2179
     99  N        111.9780   13.9580   41.4270 N.am  213  ILE213     -0.1977
    100  CA       111.8180   15.2460   40.7450 C.3   213  ILE213      0.1596
    101  C        112.3680   16.4110   41.5890 C.2   213  ILE213      0.2287
    102  O        112.5500   16.2790   42.8040 O.2   213  ILE213     -0.2864
    103  CB       110.3130   15.5250   40.3760 C.3   213  ILE213      0.0276
    104  CG1      109.4220   15.5140   41.6340 C.3   213  ILE213      0.0022
    105  CG2      109.8070   14.5230   39.3360 C.3   213  ILE213      0.0022
    106  CD1      108.0860   16.2510   41.4930 C.3   213  ILE213      0.0001
    107  N        112.0270   20.0660   43.3690 N.3   215  LEU215     -0.1231
    108  CA       111.0130   20.8930   44.0410 C.3   215  LEU215      0.1693
    109  C        109.5680   20.3720   43.9350 C.2   215  LEU215      0.2592
    110  O        108.6960   21.0740   43.4120 O.2   215  LEU215     -0.2718
    111  CB       111.0740   22.3410   43.5290 C.3   215  LEU215      0.0284
    112  CG       112.2620   23.2290   43.8620 C.3   215  LEU215      0.0019
    113  CD1      112.2940   24.4200   42.9280 C.3   215  LEU215      0.0001
    114  CD2      112.2140   23.6990   45.3160 C.3   215  LEU215      0.0001
    115  N        109.3250   19.1450   44.4100 N.am  216  ARG216     -0.1966
    116  CA       107.9650   18.5960   44.5390 C.3   216  ARG216      0.1729
    117  C        107.0240   19.6230   45.1970 C.2   216  ARG216      0.2616
    118  O        107.4030   20.3020   46.1530 O.2   216  ARG216     -0.2715
    119  CB       107.9850   17.2740   45.3330 C.3   216  ARG216      0.0348
    120  CG       106.6040   16.6030   45.5180 C.3   216  ARG216      0.0492
    121  CD       106.6810   15.1680   46.0820 C.3   216  ARG216      0.2205
    122  NE       107.5220   14.2970   45.2660 N.pl3 216  ARG216     -0.0865
    123  CZ       107.1150   13.6550   44.1800 C.cat 216  ARG216      0.5346
    124  NH1      105.8630   13.7650   43.7660 N.pl3 216  ARG216      0.1354
    125  NH2      107.9660   12.9180   43.4930 N.pl3 216  ARG216      0.1354
    126  N        105.8120   19.7480   44.6670 N.am  217  GLY217     -0.1955
    127  CA       104.8010   20.6500   45.2290 C.3   217  GLY217      0.1869
    128  C        104.8130   22.0040   44.5460 C.2   217  GLY217      0.2309
    129  O        103.8580   22.7900   44.6570 O.2   217  GLY217     -0.2863
    130  N        118.2830    9.2810   41.5370 N.3   241  THR241     -0.1203
    131  CA       119.3240    8.6140   42.3230 C.3   241  THR241      0.1994
    132  C        119.0410    8.6070   43.8290 C.2   241  THR241      0.2618
    133  O        118.5570    9.5870   44.4000 O.2   241  THR241     -0.2717
    134  CB       120.7460    9.1810   42.0180 C.3   241  THR241      0.1784
    135  OG1      120.9180    9.3220   40.6010 O.3   241  THR241     -0.2211
    136  CG2      121.8250    8.2510   42.5520 C.3   241  THR241      0.0376
    137  N        119.3530    7.4750   44.4490 N.am  242  VAL242     -0.1966
    138  CA       119.2020    7.2800   45.8820 C.3   242  VAL242      0.1712
    139  C        120.5730    6.9060   46.4630 C.2   242  VAL242      0.2458
    140  O        121.3100    6.1290   45.8470 O.2   242  VAL242     -0.2730
    141  CB       118.0970    6.2050   46.1570 C.3   242  VAL242      0.0289
    142  CG1      118.4340    5.2860   47.3380 C.3   242  VAL242      0.0023
    143  CG2      116.7320    6.8740   46.3310 C.3   242  VAL242      0.0023
    144  N        120.9390    7.4800   47.6270 N.am  243  PRO243     -0.2727
    145  CA       122.1800    7.0510   48.2880 C.3   243  PRO243      0.1402
    146  C        122.0560    5.6590   48.9350 C.2   243  PRO243      0.2269
    147  O        120.9630    5.2500   49.3330 O.2   243  PRO243     -0.2865
    148  CB       122.4050    8.1320   49.3470 C.3   243  PRO243      0.0296
    149  CG       121.0470    8.6350   49.6550 C.3   243  PRO243      0.0237
    150  CD       120.2500    8.5410   48.3880 C.3   243  PRO243      0.0939
    151  N        119.5260   16.8480   52.9620 N.3   277  ALA277     -0.1231
    152  CA       118.3430   17.7240   52.9710 C.3   277  ALA277      0.1694
    153  C        117.1210   16.9430   52.4600 C.2   277  ALA277      0.2592
    154  O        116.5290   17.2690   51.4060 O.2   277  ALA277     -0.2718
    155  CB       118.5920   18.9820   52.1430 C.3   277  ALA277      0.0304
    156  N        116.7540   15.8960   53.2060 N.am  278  ILE278     -0.1966
    157  CA       115.6630   15.0040   52.7880 C.3   278  ILE278      0.1727
    158  C        114.3220   15.1970   53.5310 C.2   278  ILE278      0.2617
    159  O        113.5460   14.2580   53.6790 O.2   278  ILE278     -0.2715
    160  CB       116.1020   13.5070   52.7600 C.3   278  ILE278      0.0290
    161  CG1      116.5170   13.0140   54.1560 C.3   278  ILE278      0.0022
    162  CG2      117.2110   13.3000   51.7270 C.3   278  ILE278      0.0023
    163  CD1      116.3150   11.5270   54.3580 C.3   278  ILE278      0.0001
    164  N        114.0400   16.4170   53.9690 N.am  279  GLY279     -0.1940
    165  CA       112.7970   16.6910   54.6800 C.3   279  GLY279      0.2014
    166  C        112.9520   16.7940   56.1880 C.2   279  GLY279      0.2638
    167  O        114.0210   16.5330   56.7320 O.2   279  GLY279     -0.2714
    168  N        111.8710   17.1630   56.8640 N.am  280  ARG280     -0.1977
    169  CA       111.8960   17.2960   58.3130 C.3   280  ARG280      0.1597
    170  C        110.7530   16.5360   58.9470 C.2   280  ARG280      0.2287
    171  O        109.6640   16.4570   58.3820 O.2   280  ARG280     -0.2864
    172  CB       111.8490   18.7670   58.7180 C.3   280  ARG280      0.0334
    173  CG       113.0420   19.5370   58.2270 C.3   280  ARG280      0.0492
    174  CD       112.7740   21.0000   58.2160 C.3   280  ARG280      0.2205
    175  NE       112.5930   21.5520   59.5630 N.pl3 280  ARG280     -0.0865
    176  CZ       113.5720   21.8250   60.4240 C.cat 280  ARG280      0.5346
    177  NH1      114.8450   21.5740   60.1310 N.pl3 280  ARG280      0.1354
    178  NH2      113.2700   22.3500   61.5970 N.pl3 280  ARG280      0.1354
    179  N        104.7130   25.0350   55.5670 N.3   326  GLU326     -0.1245
    180  CA       105.7200   25.0880   56.6240 C.3   326  GLU326      0.1567
    181  C        106.7030   26.2420   56.4510 C.2   326  GLU326      0.2260
    182  O        107.8340   26.0510   56.0100 O.2   326  GLU326     -0.2867
    183  CB       106.4570   23.7570   56.7380 C.3   326  GLU326      0.0388
    184  CG       105.6030   22.6610   57.3450 C.3   326  GLU326      0.1160
    185  CD       106.1310   21.2630   57.0640 C.2   326  GLU326      0.3649
    186  OE1      105.6350   20.3140   57.6970 O.co2 326  GLU326     -0.2457
    187  OE2      107.0310   21.1050   56.2120 O.co2 326  GLU326     -0.2457
@<TRIPOS>BOND
     1   105   103    1
     2    96    95    2
     3   103   100    1
     4   103   104    1
     5   135   134    1
     6   100    99    1
     7   100   101    1
     8    95    99   am
     9    95    94    1
    10   106   104    1
    11   130   131    1
    12    81    79    1
    13   101   102    2
    14    94    97    1
    15    94    93    1
    16    79    80    1
    17    79    76    1
    18   134   131    1
    19   134   136    1
    20    97    98    1
    21    85    84    2
    22    78    77    2
    23   131   132    1
    24    93    84   am
    25   113   112    1
    26    84    83    1
    27    76    77    1
    28    76    75    1
    29    77    82   am
    30    75    69   am
    31   107   108    1
    32   110   109    2
    33   125   123    1
    34   111   112    1
    35   111   108    1
    36   124   123    1
    37   132   133    2
    38   132   137   am
    39   112   114    1
    40   109   108    1
    41   109   115   am
    42    83    82    1
    43    83    86    1
    44   123   122    2
    45    68    69    1
    46    68    67    1
    47    68    71    1
    48    42    39    1
    49    69    70    2
    50   115   116    1
    51   137   138    1
    52   116   117    1
    53   116   119    1
    54   128   129    2
    55   128   127    1
    56   126   117   am
    57   126   127    1
    58    72    71    1
    59    72    73    1
    60   117   118    2
    61    41    40    2
    62   122   121    1
    63   119   120    1
    64    87    86    1
    65    87    88    1
    66    74    73    1
    67   120   121    1
    68    39    40    1
    69    39    38    1
    70   140   139    2
    71   138   141    1
    72   138   139    1
    73    40    43   am
    74   141   143    1
    75   141   142    1
    76   139   144   am
    77    38    36   am
    78    88    89    1
    79    43    44    1
    80    37    36    2
    81    36    35    1
    82    89    90    2
    83    46    45    2
    84   144   145    1
    85   144   150    1
    86    44    45    1
    87    45    47   am
    88    34    35    1
    89    34    29   am
    90   145   146    1
    91   145   148    1
    92   150   149    1
    93    47    48    1
    94    48    51    1
    95    48    49    1
    96    90    92    1
    97    90    91    1
    98    51    52    1
    99    28    27    1
   100    28    29    1
   101    28    31    1
   102   146   147    2
   103    50    49    2
   104    29    30    2
   105    33    31    1
   106    32    31    1
   107   148   149    1
   108    49    59   am
   109    52    53   ar
   110    52    54   ar
   111    59    60    1
   112    61    62    2
   113    61    60    1
   114    53    55   ar
   115    54    56   ar
   116   154   153    2
   117    60    63    1
   118   162   160    1
   119   155   152    1
   120    55    57   ar
   121    26    24    1
   122    56    57   ar
   123   153   152    1
   124   153   156   am
   125   160   157    1
   126   160   161    1
   127   157   156    1
   128   157   158    1
   129    63    65    1
   130    63    64    1
   131   151   152    1
   132    57    58    1
   133    24    23    1
   134   158   159    2
   135   158   164   am
   136    64    66    1
   137   164   165    1
   138    25    23    1
   139   161   163    1
   140    23    20    1
   141    16    17    1
   142    16    13    1
   143   165   166    1
   144    17    18    1
   145   179   180    1
   146    13    12    1
   147    13    14    1
   148    20    21    1
   149    20    19    1
   150    18    12    1
   151   182   181    2
   152   166   167    2
   153   166   168   am
   154   187   185   ar
   155   181   180    1
   156    21    22    2
   157    14    15    2
   158   180   183    1
   159   183   184    1
   160   168   169    1
   161     7     8    1
   162     7     6    1
   163   185   184    1
   164   185   186   ar
   165     8     9    2
   166     4     3    2
   167     5     6    1
   168     5     2    1
   169     9    11    1
   170     9    10    1
   171   174   173    1
   172   174   175    1
   173   173   172    1
   174     3     2    1
   175   169   172    1
   176   169   170    1
   177   171   170    2
   178     2     1    1
   179   175   176    2
   180   177   176    1
   181   176   178    1
