@<TRIPOS>MOLECULE
tmp/2nvuB00.pdb
 203 191 0 0 0
SMALL
GASTEIGER

@<TRIPOS>ATOM
      1  N         91.4130  -26.3930   -8.5630 N.3   402  GLY402     -0.1210
      2  CA        90.6640  -26.1120   -9.7680 C.3   402  GLY402      0.1956
      3  C         90.6900  -24.6310  -10.1060 C.2   402  GLY402      0.2612
      4  O         90.3200  -23.7770   -9.3010 O.2   402  GLY402     -0.2717
      5  N         91.1600  -24.3340  -11.3050 N.am  403  ALA403     -0.1965
      6  CA        91.2330  -22.9750  -11.8020 C.3   403  ALA403      0.1728
      7  C         90.2310  -22.9430  -12.9420 C.2   403  ALA403      0.2617
      8  O         90.2950  -23.7560  -13.8470 O.2   403  ALA403     -0.2715
      9  CB        92.6290  -22.6810  -12.3360 C.3   403  ALA403      0.0334
     10  N         89.2710  -22.0370  -12.8780 N.am  404  GLY404     -0.1940
     11  CA        88.3110  -21.9470  -13.9530 C.3   404  GLY404      0.2014
     12  C         86.8810  -22.3530  -13.7020 C.2   404  GLY404      0.2639
     13  O         86.5600  -23.5240  -13.6960 O.2   404  GLY404     -0.2714
     14  N         86.0110  -21.3740  -13.5430 N.am  405  GLY405     -0.1939
     15  CA        84.6190  -21.6700  -13.3110 C.3   405  GLY405      0.2014
     16  C         84.4290  -21.2670  -11.8840 C.2   405  GLY405      0.2638
     17  O         84.1780  -20.1050  -11.5770 O.2   405  GLY405     -0.2714
     18  N         84.5660  -22.2420  -11.0060 N.am  406  LEU406     -0.1977
     19  CA        84.4570  -21.9870   -9.5980 C.3   406  LEU406      0.1596
     20  C         85.8210  -21.5020   -9.1660 C.2   406  LEU406      0.2287
     21  O         85.9350  -20.5820   -8.3820 O.2   406  LEU406     -0.2864
     22  CB        84.1160  -23.2770   -8.8720 C.3   406  LEU406      0.0297
     23  CG        82.7120  -23.8120   -9.1090 C.3   406  LEU406      0.0022
     24  CD1       82.6320  -25.2120   -8.5630 C.3   406  LEU406      0.0001
     25  CD2       81.6950  -22.9200   -8.4350 C.3   406  LEU406      0.0001
     26  N         95.8550  -25.2520   -7.7040 N.3   425  ILE425     -0.1231
     27  CA        96.2770  -26.4420   -8.4190 C.3   425  ILE425      0.1692
     28  C         95.2880  -26.6580   -9.5360 C.2   425  ILE425      0.2592
     29  O         94.0930  -26.5250   -9.3380 O.2   425  ILE425     -0.2718
     30  CB        96.2480  -27.7090   -7.5520 C.3   425  ILE425      0.0266
     31  CG1       96.8050  -27.4200   -6.1710 C.3   425  ILE425      0.0019
     32  CG2       97.0870  -28.7920   -8.2090 C.3   425  ILE425      0.0020
     33  CD1       97.2420  -28.6730   -5.4150 C.3   425  ILE425      0.0001
     34  N         95.7940  -26.9630  -10.7180 N.am  426  ASP426     -0.1960
     35  CA        94.9560  -27.2600  -11.8620 C.3   426  ASP426      0.1840
     36  C         95.8390  -28.0060  -12.8420 C.2   426  ASP426      0.2622
     37  O         97.0040  -27.6650  -13.0400 O.2   426  ASP426     -0.2715
     38  CB        94.3820  -26.0070  -12.5130 C.3   426  ASP426      0.1450
     39  CG        93.1800  -26.3270  -13.3960 C.2   426  ASP426      0.3671
     40  OD1       92.0250  -26.1290  -12.9500 O.co2 426  ASP426     -0.2456
     41  OD2       93.3850  -26.8140  -14.5310 O.co2 426  ASP426     -0.2456
     42  N         95.2840  -29.0300  -13.4590 N.am  427  MET427     -0.1963
     43  CA        96.0540  -29.8460  -14.3780 C.3   427  MET427      0.1736
     44  C         95.8650  -29.4560  -15.8220 C.2   427  MET427      0.2616
     45  O         96.5530  -29.9670  -16.7010 O.2   427  MET427     -0.2715
     46  CB        95.6290  -31.2930  -14.2220 C.3   427  MET427      0.0427
     47  CG        94.1730  -31.4600  -14.5490 C.3   427  MET427      0.0599
     48  SD        93.6430  -33.1490  -14.5700 S.3   427  MET427     -0.1393
     49  CE        92.1180  -32.9860  -15.4780 C.3   427  MET427      0.0692
     50  N         94.9360  -28.5390  -16.0560 N.am  428  ASP428     -0.1971
     51  CA        94.5890  -28.1260  -17.4040 C.3   428  ASP428      0.1709
     52  C         95.2500  -26.9110  -18.0280 C.2   428  ASP428      0.2293
     53  O         95.8920  -26.0890  -17.3780 O.2   428  ASP428     -0.2864
     54  CB        93.0790  -27.9360  -17.4850 C.3   428  ASP428      0.1436
     55  CG        92.4430  -28.7810  -18.5610 C.2   428  ASP428      0.3671
     56  OD1       93.2070  -29.2140  -19.4580 O.co2 428  ASP428     -0.2456
     57  OD2       91.1940  -28.9890  -18.5150 O.co2 428  ASP428     -0.2456
     58  N         86.7750  -22.4570  -25.2050 N.3   433  SER433     -0.1202
     59  CA        85.4450  -22.6410  -24.5870 C.3   433  SER433      0.2020
     60  C         85.3520  -22.2090  -23.1310 C.2   433  SER433      0.2618
     61  O         84.2540  -22.0520  -22.5870 O.2   433  SER433     -0.2717
     62  CB        84.9880  -24.0980  -24.6780 C.3   433  SER433      0.2103
     63  OG        85.8960  -24.9770  -24.0510 O.3   433  SER433     -0.2182
     64  N         86.5050  -22.0340  -22.5030 N.am  434  ASN434     -0.1974
     65  CA        86.5690  -21.6140  -21.1170 C.3   434  ASN434      0.1688
     66  C         86.2210  -20.1350  -21.0280 C.2   434  ASN434      0.2292
     67  O         85.8420  -19.6420  -19.9600 O.2   434  ASN434     -0.2864
     68  CB        88.0030  -21.7500  -20.5840 C.3   434  ASN434      0.1181
     69  CG        88.5820  -23.1420  -20.7400 C.2   434  ASN434      0.2629
     70  OD1       89.7970  -23.3210  -20.6360 O.2   434  ASN434     -0.2716
     71  ND2       87.7280  -24.1330  -20.9780 N.am  434  ASN434     -0.0877
     72  N         82.9360  -18.0190  -19.3450 N.3   437  ARG437     -0.1231
     73  CA        82.7060  -17.8830  -17.8990 C.3   437  ARG437      0.1694
     74  C         83.9990  -17.7560  -17.0600 C.2   437  ARG437      0.2591
     75  O         83.9740  -17.1800  -15.9740 O.2   437  ARG437     -0.2718
     76  CB        81.9120  -19.0870  -17.3950 C.3   437  ARG437      0.0321
     77  CG        82.6690  -20.4070  -17.6080 C.3   437  ARG437      0.0489
     78  CD        81.7700  -21.6500  -17.5340 C.3   437  ARG437      0.2205
     79  NE        82.5570  -22.8810  -17.5180 N.pl3 437  ARG437     -0.0865
     80  CZ        83.0490  -23.4890  -18.5970 C.cat 437  ARG437      0.5346
     81  NH1       82.8340  -22.9980  -19.8050 N.pl3 437  ARG437      0.1354
     82  NH2       83.7840  -24.5850  -18.4630 N.pl3 437  ARG437      0.1354
     83  N         85.1180  -18.3050  -17.5350 N.am  438  GLN438     -0.1979
     84  CA        86.3700  -18.2210  -16.7790 C.3   438  GLN438      0.1601
     85  C         87.0940  -16.8910  -17.0680 C.2   438  GLN438      0.2287
     86  O         88.0760  -16.8230  -17.7990 O.2   438  GLN438     -0.2864
     87  CB        87.2380  -19.4480  -17.1020 C.3   438  GLN438      0.0394
     88  CG        86.5450  -20.7220  -16.6560 C.3   438  GLN438      0.0908
     89  CD        87.1740  -22.0010  -17.1760 C.2   438  GLN438      0.2608
     90  OE1       88.3800  -22.1770  -17.1310 O.2   438  GLN438     -0.2717
     91  NE2       86.3410  -22.9110  -17.6550 N.am  438  GLN438     -0.0878
     92  N         96.2860  -23.0110  -16.8860 N.3   450  LYS450     -0.1245
     93  CA        95.2920  -22.2220  -16.1900 C.3   450  LYS450      0.1561
     94  C         95.7990  -21.6580  -14.8750 C.2   450  LYS450      0.2260
     95  O         95.6650  -20.4640  -14.6160 O.2   450  LYS450     -0.2867
     96  CB        94.0610  -23.0610  -15.9030 C.3   450  LYS450      0.0271
     97  CG        93.3680  -23.6300  -17.1090 C.3   450  LYS450      0.0035
     98  CD        92.0660  -24.2550  -16.6480 C.3   450  LYS450      0.0206
     99  CE        91.2520  -24.8290  -17.7790 C.3   450  LYS450      0.1093
    100  NZ        89.8150  -24.8330  -17.3660 N.3   450  LYS450     -0.1314
    101  N         99.5270  -29.0780  -12.0040 N.3   472  ASN472     -0.1225
    102  CA        99.5850  -30.5000  -11.6580 C.3   472  ASN472      0.1785
    103  C         98.2220  -31.0770  -11.4000 C.2   472  ASN472      0.2597
    104  O         97.2210  -30.3620  -11.3820 O.2   472  ASN472     -0.2718
    105  CB       100.3390  -30.7370  -10.3490 C.3   472  ASN472      0.1169
    106  CG       101.6830  -30.0970  -10.3160 C.2   472  ASN472      0.2627
    107  OD1      101.8060  -28.8760  -10.1850 O.2   472  ASN472     -0.2716
    108  ND2      102.7170  -30.9200  -10.4330 N.am  472  ASN472     -0.0877
    109  N         98.2080  -32.3850  -11.1580 N.am  473  LYS473     -0.1966
    110  CA        96.9950  -33.1020  -10.7970 C.3   473  LYS473      0.1728
    111  C         97.0980  -33.1190   -9.2740 C.2   473  LYS473      0.2616
    112  O         98.1620  -33.3350   -8.7230 O.2   473  LYS473     -0.2715
    113  CB        97.0180  -34.5390  -11.3320 C.3   473  LYS473      0.0311
    114  CG        97.1040  -34.6580  -12.8420 C.3   473  LYS473      0.0038
    115  CD        96.0060  -35.5370  -13.3800 C.3   473  LYS473      0.0206
    116  CE        96.2490  -37.0040  -13.0580 C.3   473  LYS473      0.1093
    117  NZ        95.0090  -37.8520  -13.1970 N.3   473  LYS473     -0.1314
    118  N         96.0090  -32.8820   -8.5720 N.am  474  ILE474     -0.1963
    119  CA        96.1150  -32.8830   -7.1190 C.3   474  ILE474      0.1727
    120  C         96.7530  -34.1910   -6.7010 C.2   474  ILE474      0.2616
    121  O         97.4700  -34.2730   -5.7140 O.2   474  ILE474     -0.2715
    122  CB        94.7310  -32.7560   -6.4600 C.3   474  ILE474      0.0290
    123  CG1       93.7840  -33.8070   -7.0390 C.3   474  ILE474      0.0022
    124  CG2       94.1810  -31.3840   -6.6910 C.3   474  ILE474      0.0023
    125  CD1       92.4370  -33.8830   -6.3380 C.3   474  ILE474      0.0001
    126  N         96.4970  -35.2050   -7.5090 N.am  475  GLN475     -0.1977
    127  CA        96.9770  -36.5480   -7.2540 C.3   475  GLN475      0.1601
    128  C         98.4790  -36.7460   -7.3220 C.2   475  GLN475      0.2287
    129  O         98.9630  -37.8520   -7.1240 O.2   475  GLN475     -0.2864
    130  CB        96.2610  -37.5070   -8.1950 C.3   475  GLN475      0.0394
    131  CG        95.1670  -36.7890   -9.0000 C.3   475  GLN475      0.0908
    132  CD        93.8660  -37.5720   -9.0340 C.2   475  GLN475      0.2608
    133  OE1       92.8280  -37.0780   -9.4900 O.2   475  GLN475     -0.2717
    134  NE2       93.9190  -38.8130   -8.5610 N.am  475  GLN475     -0.0878
    135  N         86.7960  -26.7390   -6.7160 N.3   491  GLY491     -0.1210
    136  CA        86.0360  -26.3910   -7.8950 C.3   491  GLY491      0.1956
    137  C         86.4340  -27.4110   -8.9520 C.2   491  GLY491      0.2612
    138  O         86.8920  -27.0590  -10.0420 O.2   491  GLY491     -0.2717
    139  N         86.2680  -28.6830   -8.6110 N.am  492  LEU492     -0.1965
    140  CA        86.6120  -29.7860   -9.4900 C.3   492  LEU492      0.1728
    141  C         85.4410  -30.2180  -10.3440 C.2   492  LEU492      0.2616
    142  O         84.3050  -29.8760  -10.0550 O.2   492  LEU492     -0.2715
    143  CB        87.0670  -30.9750   -8.6690 C.3   492  LEU492      0.0311
    144  CG        88.3730  -30.7790   -7.9190 C.3   492  LEU492      0.0022
    145  CD1       88.3860  -31.7100   -6.6980 C.3   492  LEU492      0.0001
    146  CD2       89.5450  -31.0250   -8.8460 C.3   492  LEU492      0.0001
    147  N         85.7160  -30.9930  -11.3850 N.am  493  ASP493     -0.1957
    148  CA        84.6540  -31.4400  -12.2660 C.3   493  ASP493      0.1840
    149  C         84.5630  -32.9510  -12.4980 C.2   493  ASP493      0.2622
    150  O         84.1910  -33.3970  -13.5860 O.2   493  ASP493     -0.2715
    151  CB        84.7860  -30.7240  -13.5990 C.3   493  ASP493      0.1450
    152  CG        86.0690  -31.0610  -14.3060 C.2   493  ASP493      0.3671
    153  OD1       86.9420  -31.7170  -13.6900 O.co2 493  ASP493     -0.2456
    154  OD2       86.2110  -30.6620  -15.4730 O.co2 493  ASP493     -0.2456
    155  N         84.9070  -33.7310  -11.4800 N.am  494  SER494     -0.1950
    156  CA        84.8310  -35.1800  -11.5620 C.3   494  SER494      0.1924
    157  C         84.6580  -35.7420  -10.1550 C.2   494  SER494      0.2314
    158  O         85.1770  -35.1730   -9.1960 O.2   494  SER494     -0.2863
    159  CB        86.1040  -35.7540  -12.1760 C.3   494  SER494      0.2116
    160  OG        87.0750  -36.0440  -11.1810 O.3   494  SER494     -0.2180
    161  N         88.1380  -37.2860   -8.4830 N.3   497  ALA497     -0.1245
    162  CA        88.9930  -36.3000   -7.8170 C.3   497  ALA497      0.1562
    163  C         88.4900  -35.8890   -6.4390 C.2   497  ALA497      0.2260
    164  O         89.2810  -35.6440   -5.5330 O.2   497  ALA497     -0.2867
    165  CB        89.1300  -35.0820   -8.6800 C.3   497  ALA497      0.0290
    166  N         82.9040  -35.5650  -25.7440 N.3   633  LYS633     -0.1245
    167  CA        83.5630  -34.9200  -24.6080 C.3   633  LYS633      0.1561
    168  C         82.7720  -35.0920  -23.3130 C.2   633  LYS633      0.2260
    169  O         83.2940  -34.8210  -22.2310 O.2   633  LYS633     -0.2867
    170  CB        83.7520  -33.4210  -24.8720 C.3   633  LYS633      0.0271
    171  CG        84.5710  -33.0540  -26.1140 C.3   633  LYS633      0.0035
    172  CD        86.0580  -32.9040  -25.8040 C.3   633  LYS633      0.0206
    173  CE        86.3450  -31.7730  -24.7860 C.3   633  LYS633      0.1093
    174  NZ        85.9340  -30.4040  -25.2400 N.3   633  LYS633     -0.1314
    175  N         80.1600  -33.3910  -22.4710 N.3   635  ILE635     -0.1231
    176  CA        80.0480  -32.0020  -22.0270 C.3   635  ILE635      0.1692
    177  C         78.9420  -31.6190  -21.0600 C.2   635  ILE635      0.2591
    178  O         77.8120  -32.0460  -21.1850 O.2   635  ILE635     -0.2718
    179  CB        79.9610  -31.0460  -23.2320 C.3   635  ILE635      0.0266
    180  CG1       81.2630  -31.0960  -24.0110 C.3   635  ILE635      0.0019
    181  CG2       79.6880  -29.6330  -22.7730 C.3   635  ILE635      0.0020
    182  CD1       81.1750  -30.3990  -25.3380 C.3   635  ILE635      0.0001
    183  N         79.3060  -30.7850  -20.1010 N.am  636  ILE636     -0.1980
    184  CA        78.3830  -30.2590  -19.1200 C.3   636  ILE636      0.1595
    185  C         78.1250  -28.7830  -19.4590 C.2   636  ILE636      0.2287
    186  O         79.0500  -27.9830  -19.5040 O.2   636  ILE636     -0.2864
    187  CB        78.9730  -30.3100  -17.7110 C.3   636  ILE636      0.0276
    188  CG1       79.2220  -31.7600  -17.3010 C.3   636  ILE636      0.0022
    189  CG2       78.0550  -29.5930  -16.7470 C.3   636  ILE636      0.0022
    190  CD1       79.9630  -31.9100  -15.9890 C.3   636  ILE636      0.0001
    191  N         77.4030  -24.9490  -19.2280 N.3   638  ALA638     -0.1245
    192  CA        77.8950  -24.0510  -18.2010 C.3   638  ALA638      0.1562
    193  C         77.7960  -22.5600  -18.5570 C.2   638  ALA638      0.2260
    194  O         77.8360  -22.1860  -19.7380 O.2   638  ALA638     -0.2867
    195  CB        79.3320  -24.4180  -17.9000 C.3   638  ALA638      0.0290
    196  N         78.2860  -20.4440  -11.7070 N.3   643  ASN643     -0.1240
    197  CA        79.5750  -20.5970  -11.0650 C.3   643  ASN643      0.1653
    198  C         79.8100  -19.4800  -10.0540 C.2   643  ASN643      0.2266
    199  O         80.5320  -19.6580   -9.0740 O.2   643  ASN643     -0.2867
    200  CB        80.6860  -20.6260  -12.1000 C.3   643  ASN643      0.1155
    201  CG        80.8180  -21.9820  -12.7490 C.2   643  ASN643      0.2627
    202  OD1       80.7080  -22.1170  -13.9600 O.2   643  ASN643     -0.2716
    203  ND2       81.0530  -23.0010  -11.9350 N.am  643  ASN643     -0.0877
@<TRIPOS>BOND
     1   171   172    1
     2   171   170    1
     3   172   173    1
     4   166   167    1
     5   182   180    1
     6   174   173    1
     7    58    59    1
     8   170   167    1
     9    62    59    1
    10    62    63    1
    11   167   168    1
    12    59    60    1
    13   180   179    1
    14   168   169    2
    15   179   181    1
    16   179   176    1
    17    60    61    2
    18    60    64   am
    19    64    65    1
    20   175   176    1
    21   176   177    1
    22   178   177    2
    23    65    66    1
    24    65    68    1
    25   177   183   am
    26    66    67    2
    27    71    69   am
    28    69    70    2
    29    69    68    1
    30   183   184    1
    31    81    80    1
    32   194   193    2
    33   186   185    2
    34   185   184    1
    35    56    55   ar
    36    72    73    1
    37   191   192    1
    38   184   187    1
    39    80    82    1
    40    80    79    2
    41    55    57   ar
    42    55    54    1
    43   193   192    1
    44   192   195    1
    45    52    51    1
    46    52    53    2
    47    73    76    1
    48    73    74    1
    49    86    85    2
    50    99   100    1
    51    99    98    1
    52   187   188    1
    53   187   189    1
    54    91    89   am
    55    77    78    1
    56    77    76    1
    57    83    74   am
    58    83    84    1
    59    78    79    1
    60    54    51    1
    61    51    50    1
    62   188   190    1
    63    89    90    2
    64    89    88    1
    65    97    98    1
    66    97    96    1
    67    87    84    1
    68    87    88    1
    69    85    84    1
    70    74    75    2
    71    92    93    1
    72    45    44    2
    73    93    96    1
    74    93    94    1
    75    50    44   am
    76    44    43    1
    77    49    48    1
    78   154   152   ar
    79    94    95    2
    80    48    47    1
    81    47    46    1
    82    41    39   ar
    83    43    46    1
    84    43    42    1
    85   152   153   ar
    86   152   151    1
    87   202   201    2
    88    11    12    1
    89    11    10    1
    90     8     7    2
    91    12    13    2
    92    12    14   am
    93   151   148    1
    94   150   149    2
    95    14    15    1
    96    42    36   am
    97    39    40   ar
    98    39    38    1
    99   115   116    1
   100   115   114    1
   101    15    16    1
   102   117   116    1
   103    37    36    2
   104     7    10   am
   105     7     6    1
   106    36    35    1
   107   114   113    1
   108   201   200    1
   109   201   203   am
   110    38    35    1
   111   149   148    1
   112   149   155   am
   113     9     6    1
   114   148   147    1
   115   159   156    1
   116   159   160    1
   117   200   197    1
   118   101   102    1
   119    16    17    2
   120    16    18   am
   121    35    34    1
   122     6     5    1
   123   196   197    1
   124   102   103    1
   125   102   105    1
   126   156   155    1
   127   156   157    1
   128   103   104    2
   129   103   109   am
   130   147   141   am
   131   113   110    1
   132     5     3   am
   133   109   110    1
   134   197   198    1
   135    18    19    1
   136   110   111    1
   137    34    28   am
   138   108   106   am
   139   105   106    1
   140   141   142    2
   141   141   140    1
   142   106   107    2
   143   157   158    2
   144     3     2    1
   145     3     4    2
   146   198   199    2
   147   138   137    2
   148     2     1    1
   149    19    20    1
   150    19    22    1
   151    28    29    2
   152    28    27    1
   153   133   132    2
   154   140   143    1
   155   140   139    1
   156   111   112    2
   157   111   118   am
   158    20    21    2
   159    23    22    1
   160    23    24    1
   161    23    25    1
   162   132   131    1
   163   132   134   am
   164   131   130    1
   165   137   139   am
   166   137   136    1
   167   146   144    1
   168   165   162    1
   169   143   144    1
   170   118   119    1
   171   161   162    1
   172    27    26    1
   173    27    30    1
   174    32    30    1
   175   130   127    1
   176   144   145    1
   177   136   135    1
   178   162   163    1
   179    30    31    1
   180   126   127    1
   181   126   120   am
   182   128   127    1
   183   128   129    2
   184   119   120    1
   185   119   122    1
   186   123   122    1
   187   123   125    1
   188   120   121    2
   189   124   122    1
   190   163   164    2
   191    31    33    1
