@<TRIPOS>MOLECULE
tmp/2nw4A00.pdb
 170 159 0 0 0
SMALL
GASTEIGER

@<TRIPOS>ATOM
      1  N         31.7760   -0.1680   -3.2090 N.3    31  LEU31      -0.1245
      2  CA        32.0430   -0.3290   -1.7810 C.3    31  LEU31       0.1561
      3  C         33.2710    0.3700   -1.2170 C.2    31  LEU31       0.2260
      4  O         33.2160    0.9070   -0.1100 O.2    31  LEU31      -0.2867
      5  CB        32.0690   -1.8010   -1.4250 C.3    31  LEU31       0.0270
      6  CG        30.6110   -2.2190   -1.4290 C.3    31  LEU31       0.0019
      7  CD1       30.4510   -3.2700   -2.4750 C.3    31  LEU31       0.0001
      8  CD2       30.1670   -2.6830   -0.0490 C.3    31  LEU31       0.0001
      9  N         31.6360    3.4770   -0.7330 N.3    34  LEU34      -0.1231
     10  CA        30.6230    3.4410    0.3220 C.3    34  LEU34       0.1693
     11  C         31.3350    3.4800    1.6730 C.2    34  LEU34       0.2592
     12  O         30.9730    4.2660    2.5440 O.2    34  LEU34      -0.2718
     13  CB        29.7620    2.1700    0.2320 C.3    34  LEU34       0.0284
     14  CG        28.4900    2.1840   -0.6270 C.3    34  LEU34       0.0019
     15  CD1       27.8090    0.8450   -0.5350 C.3    34  LEU34       0.0001
     16  CD2       27.5500    3.2500   -0.1500 C.3    34  LEU34       0.0001
     17  N         32.3500    2.6280    1.8270 N.am   35  ASN35      -0.1974
     18  CA        33.1490    2.5440    3.0540 C.3    35  ASN35       0.1688
     19  C         33.7630    3.9070    3.3910 C.2    35  ASN35       0.2292
     20  O         33.7890    4.3150    4.5600 O.2    35  ASN35      -0.2864
     21  CB        34.2750    1.5040    2.8990 C.3    35  ASN35       0.1181
     22  CG        33.7540    0.0680    2.7300 C.2    35  ASN35       0.2629
     23  OD1       34.5290   -0.8540    2.4480 O.2    35  ASN35      -0.2716
     24  ND2       32.4510   -0.1280    2.9090 N.am   35  ASN35      -0.0877
     25  N         32.5700    6.6910    2.5510 N.3    37  LEU37      -0.1231
     26  CA        31.4580    7.5370    2.9400 C.3    37  LEU37       0.1693
     27  C         31.1360    7.1770    4.3750 C.2    37  LEU37       0.2592
     28  O         30.8280    8.0480    5.1780 O.2    37  LEU37      -0.2718
     29  CB        30.2400    7.2940    2.0350 C.3    37  LEU37       0.0284
     30  CG        29.0850    8.2880    2.1800 C.3    37  LEU37       0.0019
     31  CD1       29.6250    9.6790    2.4010 C.3    37  LEU37       0.0001
     32  CD2       28.2310    8.2670    0.9390 C.3    37  LEU37       0.0001
     33  N         31.2140    5.8880    4.6940 N.am   38  GLY38      -0.1957
     34  CA        30.9510    5.4590    6.0490 C.3    38  GLY38       0.1869
     35  C         31.8370    6.2990    6.9280 C.2    38  GLY38       0.2309
     36  O         31.3670    7.0200    7.7890 O.2    38  GLY38      -0.2863
     37  N         30.8990   10.0000    7.0140 N.3    41  GLN41      -0.1245
     38  CA        29.6770   10.1880    7.7610 C.3    41  GLN41       0.1566
     39  C         29.8760    9.9480    9.2480 C.2    41  GLN41       0.2260
     40  O         29.2590   10.6170   10.0710 O.2    41  GLN41      -0.2867
     41  CB        28.5710    9.2930    7.2030 C.3    41  GLN41       0.0367
     42  CG        27.7260   10.0160    6.1600 C.3    41  GLN41       0.0905
     43  CD        26.9910   11.2330    6.7360 C.2    41  GLN41       0.2608
     44  OE1       26.6670   12.1680    6.0110 O.2    41  GLN41      -0.2717
     45  NE2       26.7160   11.2130    8.0390 N.am   41  GLN41      -0.0878
     46  N         25.7450    3.9580   14.6060 N.3    71  TRP71      -0.1227
     47  CA        26.0260    4.7350   13.4190 C.3    71  TRP71       0.1737
     48  C         25.4290    4.2250   12.1130 C.2    71  TRP71       0.2595
     49  O         24.9540    5.0170   11.3080 O.2    71  TRP71      -0.2718
     50  CB        27.5280    5.0170   13.3060 C.3    71  TRP71       0.0564
     51  CG        28.3360    4.0190   12.6010 C.ar   71  TRP71       0.0003
     52  CD1       28.4440    2.6820   12.8870 C.ar   71  TRP71       0.0946
     53  CD2       29.2190    4.2680   11.5090 C.ar   71  TRP71       0.0152
     54  NE1       29.3490    2.0850   12.0320 N.ar   71  TRP71      -0.2442
     55  CE2       29.8380    3.0370   11.1770 C.ar   71  TRP71       0.0810
     56  CE3       29.5480    5.4090   10.7780 C.ar   71  TRP71       0.0012
     57  CZ2       30.7660    2.9190   10.1480 C.ar   71  TRP71       0.0191
     58  CZ3       30.4720    5.2910    9.7550 C.ar   71  TRP71       0.0001
     59  CH2       31.0720    4.0530    9.4490 C.ar   71  TRP71       0.0015
     60  N         25.4130    2.9160   11.9040 N.am   72  MET72      -0.1979
     61  CA        24.8320    2.3540   10.6840 C.3    72  MET72       0.1605
     62  C         23.3820    2.8130   10.6110 C.2    72  MET72       0.2287
     63  O         22.9820    3.4730    9.6600 O.2    72  MET72      -0.2864
     64  CB        24.8760    0.8260   10.7220 C.3    72  MET72       0.0413
     65  CG        24.5550    0.1520    9.4100 C.3    72  MET72       0.0598
     66  SD        25.7700    0.6160    8.1780 S.3    72  MET72      -0.1393
     67  CE        27.3180    0.1700    9.0520 C.3    72  MET72       0.0692
     68  N         23.1610    6.4290    9.9140 N.3    75  MET75      -0.1230
     69  CA        23.5180    6.6790    8.5190 C.3    75  MET75       0.1702
     70  C         22.3820    6.2470    7.5980 C.2    75  MET75       0.2592
     71  O         22.0990    6.9020    6.5890 O.2    75  MET75      -0.2718
     72  CB        24.7960    5.9270    8.1230 C.3    75  MET75       0.0401
     73  CG        26.0810    6.5900    8.5740 C.3    75  MET75       0.0596
     74  SD        27.4840    6.0620    7.5770 S.3    75  MET75      -0.1393
     75  CE        27.2950    4.2930    7.7420 C.3    75  MET75       0.0692
     76  N         21.7450    5.1330    7.9440 N.am   76  VAL76      -0.1980
     77  CA        20.6360    4.6190    7.1590 C.3    76  VAL76       0.1595
     78  C         19.4450    5.5510    7.2230 C.2    76  VAL76       0.2287
     79  O         18.8790    5.9000    6.2020 O.2    76  VAL76      -0.2864
     80  CB        20.1660    3.2500    7.6620 C.3    76  VAL76       0.0276
     81  CG1       18.7760    2.9610    7.1190 C.3    76  VAL76       0.0022
     82  CG2       21.1460    2.1680    7.2330 C.3    76  VAL76       0.0022
     83  N         20.0950    8.8830    5.4650 N.3    79  MET79      -0.1245
     84  CA        20.2310    8.5540    4.0500 C.3    79  MET79       0.1570
     85  C         18.8640    8.3220    3.4280 C.2    79  MET79       0.2261
     86  O         18.5910    8.7880    2.3280 O.2    79  MET79      -0.2867
     87  CB        21.1110    7.3190    3.8680 C.3    79  MET79       0.0387
     88  CG        21.4550    6.9940    2.4150 C.3    79  MET79       0.0595
     89  SD        20.1290    6.2450    1.3990 S.3    79  MET79      -0.1393
     90  CE        20.5910    4.5350    1.4200 C.3    79  MET79       0.0692
     91  N         17.3820   11.7150    2.8410 N.3    82  ARG82      -0.1245
     92  CA        17.9550   12.4620    1.7290 C.3    82  ARG82       0.1563
     93  C         17.3270   11.9470    0.4570 C.2    82  ARG82       0.2260
     94  O         16.9080   12.7160   -0.3990 O.2    82  ARG82      -0.2867
     95  CB        19.4500   12.2510    1.6300 C.3    82  ARG82       0.0307
     96  CG        20.2490   13.1090    2.5540 C.3    82  ARG82       0.0489
     97  CD        21.6730   13.2360    2.0450 C.3    82  ARG82       0.2205
     98  NE        22.3860   11.9650    2.0550 N.pl3  82  ARG82      -0.0865
     99  CZ        22.6700   11.2770    3.1530 C.cat  82  ARG82       0.5346
    100  NH1       22.3030   11.7280    4.3470 N.pl3  82  ARG82       0.1354
    101  NH2       23.3220   10.1310    3.0610 N.pl3  82  ARG82       0.1354
    102  N         22.9500    8.3680   -1.5410 N.3    94  PHE94      -0.1241
    103  CA        23.9670    8.2520   -0.5070 C.3    94  PHE94       0.1605
    104  C         24.6450    9.5890   -0.3070 C.2    94  PHE94       0.2264
    105  O         24.7580   10.0730    0.8160 O.2    94  PHE94      -0.2867
    106  CB        24.9980    7.1900   -0.8760 C.3    94  PHE94       0.0534
    107  CG        24.5230    5.7980   -0.6270 C.ar   94  PHE94      -0.0203
    108  CD1       24.3580    5.3420    0.6720 C.ar   94  PHE94      -0.0042
    109  CD2       24.1850    4.9630   -1.6870 C.ar   94  PHE94      -0.0042
    110  CE1       23.8610    4.0830    0.9150 C.ar   94  PHE94      -0.0003
    111  CE2       23.6850    3.6900   -1.4570 C.ar   94  PHE94      -0.0003
    112  CZ        23.5190    3.2450   -0.1520 C.ar   94  PHE94      -0.0000
    113  N         24.5310   -5.4550   -2.8350 N.3   110  MET110     -0.1245
    114  CA        23.6620   -5.1710   -1.7090 C.3   110  MET110      0.1570
    115  C         22.2300   -4.9840   -2.1890 C.2   110  MET110      0.2261
    116  O         21.3970   -4.4250   -1.4770 O.2   110  MET110     -0.2867
    117  CB        24.1200   -3.9040   -1.0050 C.3   110  MET110      0.0387
    118  CG        25.6030   -3.8160   -0.7070 C.3   110  MET110      0.0595
    119  SD        25.9250   -2.2020    0.0190 S.3   110  MET110     -0.1393
    120  CE        25.1250   -2.4460    1.5870 C.3   110  MET110      0.0692
    121  N         16.4150   -0.4450    2.2370 N.3   117  MET117     -0.1245
    122  CA        16.7170    0.9530    2.5030 C.3   117  MET117      0.1570
    123  C         15.8170    1.8900    1.7050 C.2   117  MET117      0.2261
    124  O         15.3600    2.9110    2.2190 O.2   117  MET117     -0.2867
    125  CB        18.1890    1.2320    2.1990 C.3   117  MET117      0.0387
    126  CG        19.1300    0.2770    2.9200 C.3   117  MET117      0.0595
    127  SD        20.8480    0.4990    2.4860 S.3   117  MET117     -0.1393
    128  CE        21.2530    1.8170    3.6150 C.3   117  MET117      0.0692
    129  N         22.9550   -4.8280    7.3750 N.3   203  LEU203     -0.1245
    130  CA        24.0540   -4.0350    6.8380 C.3   203  LEU203      0.1561
    131  C         25.2990   -4.3430    7.6430 C.2   203  LEU203      0.2260
    132  O         26.4090   -4.3840    7.0970 O.2   203  LEU203     -0.2867
    133  CB        23.7550   -2.5390    6.9440 C.3   203  LEU203      0.0270
    134  CG        22.8760   -1.9310    5.8570 C.3   203  LEU203      0.0019
    135  CD1       22.6050   -0.4970    6.1980 C.3   203  LEU203      0.0001
    136  CD2       23.5630   -2.0270    4.5120 C.3   203  LEU203      0.0001
    137  N         26.7040   -7.6150    6.4490 N.3   206  PHE206     -0.1227
    138  CA        27.3190   -7.4580    5.1400 C.3   206  PHE206      0.1736
    139  C         28.6880   -6.8340    5.2690 C.2   206  PHE206      0.2596
    140  O         29.6770   -7.3820    4.7930 O.2   206  PHE206     -0.2718
    141  CB        26.4310   -6.6110    4.2280 C.3   206  PHE206      0.0547
    142  CG        26.9620   -6.4540    2.8290 C.ar  206  PHE206     -0.0202
    143  CD1       27.9210   -5.4820    2.5330 C.ar  206  PHE206     -0.0042
    144  CD2       26.5050   -7.2750    1.8030 C.ar  206  PHE206     -0.0042
    145  CE1       28.4160   -5.3350    1.2200 C.ar  206  PHE206     -0.0003
    146  CE2       26.9910   -7.1380    0.4940 C.ar  206  PHE206     -0.0003
    147  CZ        27.9460   -6.1680    0.2030 C.ar  206  PHE206     -0.0000
    148  N         28.7400   -5.6890    5.9290 N.am  207  THR207     -0.1953
    149  CA        29.9960   -4.9840    6.1100 C.3   207  THR207      0.1897
    150  C         31.0440   -5.8410    6.8180 C.2   207  THR207      0.2313
    151  O         32.1970   -5.9160    6.3800 O.2   207  THR207     -0.2863
    152  CB        29.7800   -3.6730    6.9070 C.3   207  THR207      0.1794
    153  OG1       28.9390   -2.7880    6.1470 O.3   207  THR207     -0.2208
    154  CG2       31.1270   -2.9930    7.2070 C.3   207  THR207      0.0378
    155  N         32.3560   -8.4560    4.7260 N.3   210  LEU210     -0.1245
    156  CA        33.1200   -7.7250    3.7320 C.3   210  LEU210      0.1561
    157  C         34.5100   -7.3420    4.2190 C.2   210  LEU210      0.2260
    158  O         35.4550   -7.3290    3.4310 O.2   210  LEU210     -0.2867
    159  CB        32.3640   -6.4660    3.2990 C.3   210  LEU210      0.0270
    160  CG        33.0420   -5.7230    2.1430 C.3   210  LEU210      0.0019
    161  CD1       33.5090   -6.7410    1.0920 C.3   210  LEU210      0.0001
    162  CD2       32.0920   -4.7050    1.5330 C.3   210  LEU210      0.0001
    163  N         36.6220    3.2090   10.3600 N.3   225  MET225     -0.1245
    164  CA        35.5390    2.2760   10.0800 C.3   225  MET225      0.1570
    165  C         35.8670    0.8120   10.4230 C.2   225  MET225      0.2261
    166  O         35.1050    0.1480   11.1310 O.2   225  MET225     -0.2867
    167  CB        35.1440    2.4000    8.6070 C.3   225  MET225      0.0387
    168  CG        33.7910    1.8270    8.2800 C.3   225  MET225      0.0595
    169  SD        33.3830    2.0400    6.5410 S.3   225  MET225     -0.1393
    170  CE        33.2390    0.3540    6.0330 C.3   225  MET225      0.0692
@<TRIPOS>BOND
     1     1     2    1
     2   113   114    1
     3     7     6    1
     4   115   114    1
     5   115   116    2
     6     2     5    1
     7     2     3    1
     8   114   117    1
     9   109   111   ar
    10   109   107   ar
    11   102   103    1
    12   111   112   ar
    13     6     5    1
    14     6     8    1
    15     3     4    2
    16   117   118    1
    17   106   107    1
    18   106   103    1
    19     9    10    1
    20   118   119    1
    21    14    15    1
    22    14    16    1
    23    14    13    1
    24   107   108   ar
    25   103   104    1
    26    94    93    2
    27   104   105    2
    28   112   110   ar
    29   119   120    1
    30   147   146   ar
    31   147   145   ar
    32    13    10    1
    33    10    11    1
    34    93    92    1
    35   146   144   ar
    36   108   110   ar
    37    32    30    1
    38   161   160    1
    39   145   143   ar
    40    89    90    1
    41    89    88    1
    42   162   160    1
    43    95    92    1
    44    95    96    1
    45    11    17   am
    46    11    12    2
    47   123   124    2
    48   123   122    1
    49    92    91    1
    50   144   142   ar
    51    17    18    1
    52    29    30    1
    53    29    26    1
    54    97    98    1
    55    97    96    1
    56    98    99    2
    57   160   159    1
    58    30    31    1
    59   125   122    1
    60   125   126    1
    61   121   122    1
    62    86    85    2
    63    88    87    1
    64    23    22    2
    65   127   126    1
    66   127   128    1
    67   143   142   ar
    68    25    26    1
    69    22    21    1
    70    22    24   am
    71   142   141    1
    72    21    18    1
    73    26    27    1
    74    18    19    1
    75   101    99    1
    76    99   100    1
    77   159   156    1
    78    19    20    2
    79    85    84    1
    80   158   157    2
    81   156   157    1
    82   156   155    1
    83    87    84    1
    84    84    83    1
    85   141   138    1
    86    27    33   am
    87    27    28    2
    88   136   134    1
    89    33    34    1
    90   140   139    2
    91   138   139    1
    92   138   137    1
    93   139   148   am
    94   134   135    1
    95   134   133    1
    96   148   149    1
    97    44    43    2
    98   170   169    1
    99    34    35    1
   100   149   150    1
   101   149   152    1
   102   153   152    1
   103    42    43    1
   104    42    41    1
   105    79    78    2
   106   151   150    2
   107   169   168    1
   108    71    70    2
   109    43    45   am
   110   130   133    1
   111   130   129    1
   112   130   131    1
   113   152   154    1
   114    35    36    2
   115    37    38    1
   116   132   131    2
   117    81    80    1
   118    77    78    1
   119    77    80    1
   120    77    76    1
   121    41    38    1
   122    82    80    1
   123    74    75    1
   124    74    73    1
   125    70    76   am
   126    70    69    1
   127    38    39    1
   128    72    69    1
   129    72    73    1
   130    66    67    1
   131    66    65    1
   132   168   167    1
   133    69    68    1
   134   167   164    1
   135    39    40    2
   136    65    64    1
   137    59    58   ar
   138    59    57   ar
   139    63    62    2
   140    58    56   ar
   141   164   163    1
   142   164   165    1
   143    57    55   ar
   144   165   166    2
   145    62    61    1
   146    61    64    1
   147    61    60    1
   148    56    53   ar
   149    55    53   ar
   150    55    54   ar
   151    49    48    2
   152    53    51   ar
   153    60    48   am
   154    54    52   ar
   155    48    47    1
   156    51    52   ar
   157    51    50    1
   158    50    47    1
   159    47    46    1
