@<TRIPOS>MOLECULE
tmp/2nwgA00.pdb
 84 78 0 0 0
SMALL
GASTEIGER

@<TRIPOS>ATOM
      1  N        -28.7350   -7.5760    5.5620 N.3     4  VAL4       -0.1245
      2  CA       -28.2430   -7.9200    6.8840 C.3     4  VAL4        0.1561
      3  C        -29.3340   -8.3960    7.8250 C.2     4  VAL4        0.2260
      4  O        -29.1840   -9.4250    8.4790 O.2     4  VAL4       -0.2867
      5  CB       -27.6060   -6.6710    7.4970 C.3     4  VAL4        0.0252
      6  CG1      -26.6420   -7.0630    8.6240 C.3     4  VAL4        0.0019
      7  CG2      -26.9210   -5.8160    6.3250 C.3     4  VAL4        0.0019
      8  N        -20.7950  -13.1880    8.3630 N.2    11  PRO11      -0.2584
      9  CA       -20.4230  -12.1810    7.3950 C.3    11  PRO11       0.1895
     10  C        -19.1840  -12.5390    6.6210 C.2    11  PRO11       0.2359
     11  O        -19.1250  -12.2740    5.4420 O.2    11  PRO11      -0.2858
     12  CB       -20.1480  -10.9190    8.2520 C.2    11  PRO11       0.0071
     13  CG       -20.2190  -11.2760    9.6440 C.2    11  PRO11       0.0180
     14  CD       -20.7950  -12.6650    9.7550 C.2    11  PRO11       0.0937
     15  N         -7.5220    0.0780    9.2610 N.3    26  HIS26      -0.1241
     16  CA        -7.9860   -0.3620   10.6150 C.3    26  HIS26       0.1621
     17  C         -8.3790   -1.7990   10.4730 C.2    26  HIS26       0.2264
     18  O         -8.5610   -2.2440    9.3420 O.2    26  HIS26      -0.2867
     19  CB        -9.2040    0.4980   11.1580 C.3    26  HIS26       0.0745
     20  CG       -10.4070    0.5690   10.2420 C.ar   26  HIS26       0.0817
     21  ND1      -10.7270    1.6900    9.4890 N.ar   26  HIS26      -0.2268
     22  CD2      -11.3060   -0.3790    9.8980 C.ar   26  HIS26       0.1154
     23  CE1      -11.7740    1.4220    8.7210 C.ar   26  HIS26       0.1986
     24  NE2      -12.1580    0.1760    8.9720 N.ar   26  HIS26      -0.2212
     25  N        -11.4700   -4.1160   11.8530 N.3    28  LYS28      -0.1245
     26  CA       -12.7530   -4.1360   12.4860 C.3    28  LYS28       0.1561
     27  C        -12.8910   -5.5400   13.1070 C.2    28  LYS28       0.2260
     28  O        -12.5940   -6.5060   12.4180 O.2    28  LYS28      -0.2867
     29  CB       -13.8420   -3.8970   11.4480 C.3    28  LYS28       0.0271
     30  CG       -15.2380   -3.9680   12.0160 C.3    28  LYS28       0.0035
     31  CD       -16.2570   -3.3380   11.0280 C.3    28  LYS28       0.0206
     32  CE       -16.7080   -4.3580    9.9640 C.3    28  LYS28       0.1093
     33  NZ       -17.7560   -3.8040    8.9980 N.3    28  LYS28      -0.1314
     34  N        -15.4780   -7.8840   14.6930 N.3    30  LEU30      -0.1231
     35  CA       -16.9540   -7.9700   14.7520 C.3    30  LEU30       0.1693
     36  C        -17.3690   -8.6280   16.0310 C.2    30  LEU30       0.2592
     37  O        -16.6900   -9.4960   16.5410 O.2    30  LEU30      -0.2718
     38  CB       -17.5370   -8.7400   13.5230 C.3    30  LEU30       0.0284
     39  CG       -17.1070   -8.3690   12.1070 C.3    30  LEU30       0.0019
     40  CD1      -17.4550   -9.4140   11.0150 C.3    30  LEU30       0.0001
     41  CD2      -17.7610   -7.0600   11.7180 C.3    30  LEU30       0.0001
     42  N        -18.5270   -8.2450   16.5530 N.am   31  ASN31      -0.1960
     43  CA       -18.9850   -8.8500   17.7520 C.3    31  ASN31       0.1819
     44  C        -19.8750  -10.0110   17.3410 C.2    31  ASN31       0.2621
     45  O        -21.1130   -9.9360   17.4930 O.2    31  ASN31      -0.2715
     46  CB       -19.7530   -7.8200   18.6200 C.3    31  ASN31       0.1195
     47  CG       -19.8490   -8.2520   20.0530 C.2    31  ASN31       0.2630
     48  OD1      -19.4930   -9.3890   20.4000 O.2    31  ASN31      -0.2716
     49  ND2      -20.2970   -7.3490   20.9210 N.am   31  ASN31      -0.0877
     50  N        -19.2660  -11.0380   16.7540 N.am   32  THR32      -0.1951
     51  CA       -19.9880  -12.2480   16.3100 C.3    32  THR32       0.1897
     52  C        -19.3020  -13.4960   16.9000 C.2    32  THR32       0.2313
     53  O        -18.5880  -14.1810   16.1750 O.2    32  THR32      -0.2863
     54  CB       -19.9740  -12.4300   14.7560 C.3    32  THR32       0.1794
     55  OG1      -18.6450  -12.2750   14.2240 O.3    32  THR32      -0.2208
     56  CG2      -20.8790  -11.4680   14.0640 C.3    32  THR32       0.0378
     57  N         -9.8220   -2.9260    6.7690 N.3    42  ARG42      -0.1245
     58  CA       -10.0370   -1.9230    5.7210 C.3    42  ARG42       0.1563
     59  C         -8.6830   -1.4970    5.1720 C.2    42  ARG42       0.2260
     60  O         -7.8000   -1.2080    5.9520 O.2    42  ARG42      -0.2867
     61  CB       -10.7030   -0.6800    6.2820 C.3    42  ARG42       0.0307
     62  CG       -11.1100    0.3020    5.1640 C.3    42  ARG42       0.0489
     63  CD       -12.6310    0.2660    5.2610 C.3    42  ARG42       0.2205
     64  NE       -13.2830    0.1350    3.9730 N.pl3  42  ARG42      -0.0865
     65  CZ       -14.5970   -0.0540    3.8430 C.cat  42  ARG42       0.5346
     66  NH1      -15.3340   -0.1260    4.9390 N.pl3  42  ARG42       0.1354
     67  NH2      -15.1660   -0.1800    2.6360 N.pl3  42  ARG42       0.1354
     68  N         -9.1220    0.7240   -0.3570 N.3    47  ASN47      -0.1240
     69  CA       -10.3440    0.7610    0.4870 C.3    47  ASN47       0.1653
     70  C        -11.3850   -0.4080    0.4180 C.2    47  ASN47       0.2266
     71  O        -12.5510   -0.2860    0.8360 O.2    47  ASN47      -0.2867
     72  CB       -10.9840    2.1360    0.4630 C.3    47  ASN47       0.1155
     73  CG       -10.9960    2.7750    1.8620 C.2    47  ASN47       0.2627
     74  OD1       -9.9240    2.9060    2.5690 O.2    47  ASN47      -0.2716
     75  ND2      -12.2180    3.1080    2.3020 N.am   47  ASN47      -0.0877
     76  N        -12.7170   -3.9090    2.0500 N.3    49  GLN49      -0.1245
     77  CA       -12.6840   -4.5360    3.3590 C.3    49  GLN49       0.1566
     78  C        -12.6160   -6.0100    3.0860 C.2    49  GLN49       0.2260
     79  O        -13.3320   -6.5050    2.2750 O.2    49  GLN49      -0.2867
     80  CB       -13.8270   -4.0860    4.3190 C.3    49  GLN49       0.0367
     81  CG       -15.1590   -3.8160    3.7520 C.3    49  GLN49       0.0905
     82  CD       -16.2400   -3.6190    4.8240 C.2    49  GLN49       0.2608
     83  OE1      -15.9690   -3.2780    5.9920 O.2    49  GLN49      -0.2717
     84  NE2      -17.4730   -3.8420    4.4210 N.am   49  GLN49      -0.0878
@<TRIPOS>BOND
     1    68    69    1
     2    70    69    1
     3    70    71    2
     4    72    69    1
     5    72    73    1
     6    73    75   am
     7    73    74    2
     8    76    77    1
     9    79    78    2
    10    67    65    1
    11    78    77    1
    12    77    80    1
    13    81    80    1
    14    81    82    1
    15    65    64    2
    16    65    66    1
    17    64    63    1
    18    84    82   am
    19    82    83    2
    20    62    63    1
    21    62    61    1
    22    59    58    1
    23    59    60    2
    24    11    10    2
    25     1     2    1
    26    58    61    1
    27    58    57    1
    28     7     5    1
    29    10     9    1
    30     2     5    1
    31     2     3    1
    32     9    12    1
    33     9     8    1
    34     5     6    1
    35     3     4    2
    36    12    13    2
    37     8    14    2
    38    23    24   ar
    39    23    21   ar
    40    24    22   ar
    41    33    32    1
    42    15    16    1
    43    18    17    2
    44    21    20   ar
    45    13    14    1
    46    22    20   ar
    47    32    31    1
    48    20    19    1
    49    17    16    1
    50    16    19    1
    51    40    39    1
    52    31    30    1
    53    29    30    1
    54    29    26    1
    55    41    39    1
    56    25    26    1
    57    39    38    1
    58    28    27    2
    59    26    27    1
    60    38    35    1
    61    56    54    1
    62    55    54    1
    63    34    35    1
    64    35    36    1
    65    54    51    1
    66    36    37    2
    67    36    42   am
    68    53    52    2
    69    51    50    1
    70    51    52    1
    71    42    43    1
    72    50    44   am
    73    44    45    2
    74    44    43    1
    75    43    46    1
    76    46    47    1
    77    47    48    2
    78    47    49   am
