@<TRIPOS>MOLECULE
tmp/2nwjA03.pdb
 104 102 0 0 0
SMALL
GASTEIGER

@<TRIPOS>ATOM
      1  N         17.9290   16.3790   10.7150 N.3    89  THR89      -0.1203
      2  CA        17.4330   15.0380   10.4180 C.3    89  THR89       0.1994
      3  C         15.9880   15.1300    9.9340 C.2    89  THR89       0.2618
      4  O         15.2770   16.0770   10.2750 O.2    89  THR89      -0.2717
      5  CB        17.5190   14.1220   11.6600 C.3    89  THR89       0.1784
      6  OG1       16.6580   14.6170   12.6930 O.3    89  THR89      -0.2211
      7  CG2       18.9530   14.0680   12.1740 C.3    89  THR89       0.0376
      8  N         15.5620   14.1610    9.1320 N.am   90  GLU90      -0.1965
      9  CA        14.2100   14.1640    8.6000 C.3    90  GLU90       0.1733
     10  C         13.3860   12.9940    9.1470 C.2    90  GLU90       0.2616
     11  O         12.1700   12.9360    8.9710 O.2    90  GLU90      -0.2715
     12  CB        14.2840   14.1760    7.0620 C.3    90  GLU90       0.0429
     13  CG        14.8670   15.5010    6.5580 C.3    90  GLU90       0.1163
     14  CD        15.3890   15.4250    5.1410 C.2    90  GLU90       0.3649
     15  OE1       14.6650   14.9210    4.2560 O.co2  90  GLU90      -0.2457
     16  OE2       16.5330   15.8770    4.9150 O.co2  90  GLU90      -0.2457
     17  N         14.0470   12.0990    9.8750 N.am   91  GLY91      -0.1955
     18  CA        13.3380   10.9770   10.4630 C.3    91  GLY91       0.1869
     19  C         13.1990    9.8680    9.4480 C.2    91  GLY91       0.2309
     20  O         13.6140   10.0410    8.3060 O.2    91  GLY91      -0.2863
     21  N          6.2320    8.8390   11.0070 N.3   250  VAL250     -0.1231
     22  CA         7.5770    9.3150   10.7510 C.3   250  VAL250      0.1692
     23  C          8.2760    9.1760   12.0930 C.2   250  VAL250      0.2592
     24  O          7.8380    9.7510   13.0840 O.2   250  VAL250     -0.2718
     25  CB         7.6650   10.7580   10.2620 C.3   250  VAL250      0.0266
     26  CG1        9.1230   11.1950   10.1350 C.3   250  VAL250      0.0020
     27  CG2        6.9550   10.9260    8.9340 C.3   250  VAL250      0.0020
     28  N          9.3650    8.4270   12.1380 N.am  251  ALA251     -0.1966
     29  CA        10.0870    8.1920   13.3720 C.3   251  ALA251      0.1713
     30  C         11.3250    9.0370   13.5880 C.2   251  ALA251      0.2458
     31  O         12.0080    9.3850   12.5990 O.2   251  ALA251     -0.2730
     32  CB        10.5040    6.7310   13.4340 C.3   251  ALA251      0.0333
     33  N         11.6060    9.4300   14.8550 N.am  252  PRO252     -0.2716
     34  CA        12.7890   10.2150   15.1900 C.3   252  PRO252      0.1536
     35  C         13.9200    9.3870   14.7540 C.2   252  PRO252      0.2598
     36  O         13.7850    8.1920   14.6310 O.2   252  PRO252     -0.2715
     37  CB        12.7440   10.2560   16.7010 C.3   252  PRO252      0.0310
     38  CG        11.3420   10.4740   16.9600 C.3   252  PRO252      0.0237
     39  CD        10.5330    9.8630   15.7650 C.3   252  PRO252      0.0939
     40  N         15.0530    9.9990   14.5430 N.am  253  ASN253     -0.1973
     41  CA        16.1220    9.1560   14.1380 C.3   253  ASN253      0.1688
     42  C         16.7650    8.5290   15.3170 C.2   253  ASN253      0.2292
     43  O         16.5930    8.9960   16.4410 O.2   253  ASN253     -0.2864
     44  CB        17.1870    9.9180   13.3830 C.3   253  ASN253      0.1181
     45  CG        16.8370   10.0910   11.9500 C.2   253  ASN253      0.2629
     46  OD1       15.9520    9.4040   11.4310 O.2   253  ASN253     -0.2716
     47  ND2       17.5230   10.9940   11.2820 N.am  253  ASN253     -0.0877
     48  N         22.6330   18.2030   16.8330 N.3   310  LEU310     -0.1245
     49  CA        21.2150   18.4320   17.0270 C.3   310  LEU310      0.1561
     50  C         20.9060   19.9180   16.9800 C.2   310  LEU310      0.2260
     51  O         21.7810   20.7540   17.2000 O.2   310  LEU310     -0.2867
     52  CB        20.7840   17.8540   18.3730 C.3   310  LEU310      0.0270
     53  CG        21.1510   16.3800   18.5610 C.3   310  LEU310      0.0019
     54  CD1       20.8090   15.9160   19.9660 C.3   310  LEU310      0.0001
     55  CD2       20.4010   15.5600   17.5300 C.3   310  LEU310      0.0001
     56  N         11.9060   16.9510   23.2810 N.3   318  GLU318     -0.1231
     57  CA        11.9160   17.7870   22.0850 C.3   318  GLU318      0.1699
     58  C         12.4610   16.9850   20.9170 C.2   318  GLU318      0.2592
     59  O         11.9690   17.0940   19.7900 O.2   318  GLU318     -0.2718
     60  CB        12.7840   19.0240   22.2920 C.3   318  GLU318      0.0402
     61  CG        12.1700   20.0230   23.2300 C.3   318  GLU318      0.1161
     62  CD        13.0870   21.1750   23.4990 C.2   318  GLU318      0.3649
     63  OE1       14.2360   20.9200   23.9260 O.co2 318  GLU318     -0.2457
     64  OE2       12.6580   22.3310   23.2840 O.co2 318  GLU318     -0.2457
     65  N         13.4770   16.1740   21.1880 N.am  319  TYR319     -0.1962
     66  CA        14.0800   15.3640   20.1430 C.3   319  TYR319      0.1771
     67  C         13.0910   14.3740   19.5380 C.2   319  TYR319      0.2619
     68  O         13.0060   14.2520   18.3190 O.2   319  TYR319     -0.2715
     69  CB        15.2820   14.5760   20.6640 C.3   319  TYR319      0.0574
     70  CG        15.9220   13.7680   19.5600 C.ar  319  TYR319     -0.0198
     71  CD1       16.7220   14.3860   18.6010 C.ar  319  TYR319     -0.0009
     72  CD2       15.6310   12.4130   19.4000 C.ar  319  TYR319     -0.0009
     73  CE1       17.2080   13.6830   17.5060 C.ar  319  TYR319      0.0417
     74  CE2       16.1110   11.7000   18.3050 C.ar  319  TYR319      0.0417
     75  CZ        16.8970   12.3420   17.3630 C.ar  319  TYR319      0.1957
     76  OH        17.3660   11.6580   16.2720 O.3   319  TYR319     -0.2866
     77  N         12.3640   13.6590   20.3910 N.am  320  LEU320     -0.1963
     78  CA        11.3900   12.6740   19.9280 C.3   320  LEU320      0.1728
     79  C         10.1430   13.3260   19.3200 C.2   320  LEU320      0.2617
     80  O          9.4760   12.7300   18.4700 O.2   320  LEU320     -0.2715
     81  CB        10.9810   11.7460   21.0830 C.3   320  LEU320      0.0311
     82  CG        12.0770   10.8570   21.6910 C.3   320  LEU320      0.0022
     83  CD1       11.5190   10.0330   22.8490 C.3   320  LEU320      0.0001
     84  CD2       12.6280    9.9340   20.6030 C.3   320  LEU320      0.0001
     85  N          9.8350   14.5480   19.7520 N.am  321  GLY321     -0.1940
     86  CA         8.6600   15.2370   19.2360 C.3   321  GLY321      0.2014
     87  C          7.4460   14.9600   20.1050 C.2   321  GLY321      0.2640
     88  O          7.2360   13.8240   20.5330 O.2   321  GLY321     -0.2714
     89  N          6.6330   15.9810   20.3670 N.am  322  THR322     -0.1936
     90  CA         5.4600   15.7950   21.2180 C.3   322  THR322      0.2028
     91  C          4.4890   14.7050   20.7610 C.2   322  THR322      0.2642
     92  O          3.9430   13.9830   21.5900 O.2   322  THR322     -0.2714
     93  CB         4.6850   17.1270   21.4230 C.3   322  THR322      0.1808
     94  OG1        4.3320   17.6950   20.1550 O.3   322  THR322     -0.2208
     95  CG2        5.5430   18.1110   22.2070 C.3   322  THR322      0.0379
     96  N          4.2830   14.5810   19.4540 N.am  323  GLU323     -0.1976
     97  CA         3.3820   13.5660   18.8990 C.3   323  GLU323      0.1602
     98  C          3.8220   12.1670   19.3400 C.2   323  GLU323      0.2287
     99  O          3.0350   11.3850   19.8760 O.2   323  GLU323     -0.2864
    100  CB         3.3860   13.6600   17.3610 C.3   323  GLU323      0.0415
    101  CG         2.5120   12.6400   16.6150 C.3   323  GLU323      0.1163
    102  CD         2.5220   12.8440   15.0940 C.2   323  GLU323      0.3649
    103  OE1        3.3820   13.6000   14.5900 O.co2 323  GLU323     -0.2457
    104  OE2        1.6750   12.2400   14.3990 O.co2 323  GLU323     -0.2457
@<TRIPOS>BOND
     1    15    14   ar
     2    16    14   ar
     3    14    13    1
     4    13    12    1
     5    12     9    1
     6    20    19    2
     7     9     8    1
     8     9    10    1
     9    27    25    1
    10    11    10    2
    11     8     3   am
    12    10    17   am
    13    19    18    1
    14    17    18    1
    15     3     4    2
    16     3     2    1
    17    26    25    1
    18    25    22    1
    19     2     1    1
    20     2     5    1
    21    22    21    1
    22    22    23    1
    23    47    45   am
    24    46    45    2
    25     5     7    1
    26     5     6    1
    27    45    44    1
    28    23    28   am
    29    23    24    2
    30    28    29    1
    31    31    30    2
    32    29    32    1
    33    29    30    1
    34    44    41    1
    35    30    33   am
    36    41    40    1
    37    41    42    1
    38   104   102   ar
    39    40    35   am
    40   103   102   ar
    41    36    35    2
    42    35    34    1
    43    33    34    1
    44    33    39    1
    45   102   101    1
    46    34    37    1
    47    42    43    2
    48    39    38    1
    49    76    75    1
    50   101   100    1
    51    37    38    1
    52    48    49    1
    53    50    49    1
    54    50    51    2
    55    49    52    1
    56   100    97    1
    57    75    73   ar
    58    75    74   ar
    59    73    71   ar
    60    55    53    1
    61    74    72   ar
    62    68    67    2
    63    52    53    1
    64    80    79    2
    65    53    54    1
    66    71    70   ar
    67    97    98    1
    68    97    96    1
    69    86    85    1
    70    86    87    1
    71    79    85   am
    72    79    78    1
    73    98    99    2
    74    72    70   ar
    75    96    91   am
    76    67    66    1
    77    67    77   am
    78    70    69    1
    79    59    58    2
    80    78    77    1
    81    78    81    1
    82    87    89   am
    83    87    88    2
    84    66    69    1
    85    66    65    1
    86    94    93    1
    87    89    90    1
    88    84    82    1
    89    91    90    1
    90    91    92    2
    91    58    65   am
    92    58    57    1
    93    81    82    1
    94    90    93    1
    95    93    95    1
    96    82    83    1
    97    57    60    1
    98    57    56    1
    99    60    61    1
   100    61    62    1
   101    64    62   ar
   102    62    63   ar
