@<TRIPOS>MOLECULE
tmp/2nwwA00.pdb
 134 126 0 0 0
SMALL
GASTEIGER

@<TRIPOS>ATOM
      1  N          4.3350    5.7780   11.0460 N.3   267  ARG267     -0.1231
      2  CA         5.1690    4.8940   10.2490 C.3   267  ARG267      0.1694
      3  C          6.5060    5.5580    9.9870 C.2   267  ARG267      0.2593
      4  O          7.1840    5.2380    9.0210 O.2   267  ARG267     -0.2718
      5  CB         4.4810    4.5080    8.9400 C.3   267  ARG267      0.0321
      6  CG         3.2870    3.6180    9.1380 C.3   267  ARG267      0.0489
      7  CD         2.4900    3.4420    7.8640 C.3   267  ARG267      0.2205
      8  NE         1.6620    4.6050    7.5640 N.pl3 267  ARG267     -0.0865
      9  CZ         1.6880    5.2590    6.4080 C.cat 267  ARG267      0.5346
     10  NH1        2.4990    4.8550    5.4280 N.pl3 267  ARG267      0.1354
     11  NH2        0.8930    6.3110    6.2310 N.pl3 267  ARG267      0.1354
     12  N          6.8800    6.4820   10.8630 N.am  268  SER268     -0.1938
     13  CA         8.1730    7.1450   10.7780 C.3   268  SER268      0.2055
     14  C          8.9410    7.0130   12.1100 C.2   268  SER268      0.2644
     15  O          8.5890    7.6380   13.1160 O.2   268  SER268     -0.2714
     16  CB         7.9910    8.6080   10.3420 C.3   268  SER268      0.2130
     17  OG         9.2210    9.2350   10.0220 O.3   268  SER268     -0.2179
     18  N          9.9630    6.1590   12.1020 N.am  269  SER269     -0.1935
     19  CA        10.8710    5.9830   13.2220 C.3   269  SER269      0.2055
     20  C         11.2840    7.3720   13.7010 C.2   269  SER269      0.2643
     21  O         10.9680    7.7770   14.8240 O.2   269  SER269     -0.2714
     22  CB        12.1140    5.1950   12.7590 C.3   269  SER269      0.2130
     23  OG        12.6620    4.3320   13.7520 O.3   269  SER269     -0.2179
     24  N         11.9530    8.1070   12.8180 N.am  270  SER270     -0.1949
     25  CA        12.5240    9.4090   13.1530 C.3   270  SER270      0.1924
     26  C         11.4700   10.5070   13.2830 C.2   270  SER270      0.2314
     27  O         11.6820   11.5010   13.9680 O.2   270  SER270     -0.2863
     28  CB        13.5740    9.8050   12.1150 C.3   270  SER270      0.2116
     29  OG        13.0050    9.7950   10.8220 O.3   270  SER270     -0.2180
     30  N         16.8860    5.2750   15.6290 N.3   298  ALA298     -0.1231
     31  CA        15.9500    5.5940   14.5540 C.3   298  ALA298      0.1694
     32  C         16.7190    5.6910   13.2380 C.2   298  ALA298      0.2592
     33  O         16.2300    6.2570   12.2520 O.2   298  ALA298     -0.2718
     34  CB        15.2100    6.9010   14.8520 C.3   298  ALA298      0.0304
     35  N         17.9300    5.1270   13.2420 N.am  299  THR299     -0.1953
     36  CA        18.8430    5.1800   12.1070 C.3   299  THR299      0.1897
     37  C         19.6140    3.8630   11.9450 C.2   299  THR299      0.2313
     38  O         20.2520    3.6470   10.9320 O.2   299  THR299     -0.2863
     39  CB        19.8430    6.3800   12.2230 C.3   299  THR299      0.1794
     40  OG1       19.1640    7.5600   12.6810 O.3   299  THR299     -0.2208
     41  CG2       20.4840    6.6930   10.8870 C.3   299  THR299      0.0378
     42  N         16.2330   -0.8600   13.1990 N.3   302  MET302     -0.1245
     43  CA        14.9850   -1.2900   12.5680 C.3   302  MET302      0.1570
     44  C         14.8370   -2.7980   12.7330 C.2   302  MET302      0.2261
     45  O         15.2680   -3.5720   11.8790 O.2   302  MET302     -0.2867
     46  CB        14.9530   -0.9490   11.0790 C.3   302  MET302      0.0387
     47  CG        14.6350    0.4930   10.7530 C.3   302  MET302      0.0595
     48  SD        16.1030    1.5340   10.7790 S.3   302  MET302     -0.1393
     49  CE        17.0860    0.8470    9.4370 C.3   302  MET302      0.0692
     50  N         11.6020   -3.9380   10.6120 N.3   305  THR305     -0.1218
     51  CA        11.9110   -3.8950    9.1940 C.3   305  THR305      0.1862
     52  C         12.7820   -5.0930    8.8160 C.2   305  THR305      0.2287
     53  O         12.4670   -5.8060    7.8700 O.2   305  THR305     -0.2866
     54  CB        12.4910   -2.5110    8.7870 C.3   305  THR305      0.1770
     55  OG1       11.4070   -1.6320    8.4360 O.3   305  THR305     -0.2211
     56  CG2       13.4620   -2.6160    7.6220 C.3   305  THR305      0.0375
     57  N         23.2100    3.2580    6.8640 N.3   344  ALA344     -0.1231
     58  CA        23.1370    4.3570    7.8540 C.3   344  ALA344      0.1694
     59  C         22.2970    5.5790    7.4770 C.2   344  ALA344      0.2593
     60  O         21.0600    5.4930    7.4210 O.2   344  ALA344     -0.2718
     61  CB        24.5000    4.7770    8.2650 C.3   344  ALA344      0.0304
     62  N         22.9660    6.7100    7.2320 N.am  345  GLY345     -0.1942
     63  CA        22.2840    7.9410    6.7990 C.3   345  GLY345      0.2014
     64  C         21.4600    7.8430    5.5070 C.2   345  GLY345      0.2639
     65  O         20.2540    8.1620    5.5040 O.2   345  GLY345     -0.2714
     66  N         22.1290    7.3910    4.4310 N.am  346  VAL346     -0.1963
     67  CA        21.6000    7.2700    3.0530 C.3   346  VAL346      0.1712
     68  C         20.0830    7.0670    2.9710 C.2   346  VAL346      0.2458
     69  O         19.5800    5.9890    3.2870 O.2   346  VAL346     -0.2730
     70  CB        22.3530    6.1710    2.2790 C.3   346  VAL346      0.0289
     71  CG1       21.7720    6.1200    0.8770 C.3   346  VAL346      0.0023
     72  CG2       23.8510    6.4900    2.2220 C.3   346  VAL346      0.0023
     73  N         19.3550    8.1210    2.5520 N.am  347  PRO347     -0.2716
     74  CA        17.8910    8.1470    2.5550 C.3   347  PRO347      0.1536
     75  C         17.2530    7.1270    1.6090 C.2   347  PRO347      0.2599
     76  O         17.9200    6.5980    0.7030 O.2   347  PRO347     -0.2715
     77  CB        17.5600    9.5810    2.1160 C.3   347  PRO347      0.0310
     78  CG        18.7590   10.0340    1.3600 C.3   347  PRO347      0.0237
     79  CD        19.9250    9.3800    2.0350 C.3   347  PRO347      0.0939
     80  N         15.9710    6.8470    1.8540 N.am  348  GLY348     -0.1941
     81  CA        15.2100    5.8450    1.1040 C.3   348  GLY348      0.2014
     82  C         15.6790    4.4170    1.3360 C.2   348  GLY348      0.2639
     83  O         15.1610    3.4830    0.7210 O.2   348  GLY348     -0.2714
     84  N         16.6450    4.2640    2.2430 N.am  349  ALA349     -0.1963
     85  CA        17.3270    3.0050    2.5580 C.3   349  ALA349      0.1728
     86  C         16.4360    1.7830    2.7050 C.2   349  ALA349      0.2616
     87  O         16.8990    0.6650    2.5020 O.2   349  ALA349     -0.2715
     88  CB        18.1430    3.1740    3.8060 C.3   349  ALA349      0.0334
     89  N         15.1700    2.0100    3.0650 N.am  350  GLY350     -0.1955
     90  CA        14.1990    0.9480    3.3320 C.3   350  GLY350      0.1869
     91  C         14.1640   -0.0540    2.2060 C.2   350  GLY350      0.2309
     92  O         14.3600   -1.2620    2.4180 O.2   350  GLY350     -0.2863
     93  N         17.7700   -1.5130    1.2490 N.3   353  MET353     -0.1245
     94  CA        18.1810   -2.6240    2.1000 C.3   353  MET353      0.1570
     95  C         17.5570   -3.9220    1.5990 C.2   353  MET353      0.2261
     96  O         18.2500   -4.9390    1.4490 O.2   353  MET353     -0.2867
     97  CB        17.7810   -2.3770    3.5560 C.3   353  MET353      0.0387
     98  CG        18.7150   -1.4630    4.3350 C.3   353  MET353      0.0595
     99  SD        18.0460   -1.0590    5.9620 S.3   353  MET353     -0.1393
    100  CE        17.9900   -2.6730    6.7490 C.3   353  MET353      0.0692
    101  N          3.8190   -1.6860    7.1430 N.3   385  ASP385     -0.1239
    102  CA         4.6880   -0.6030    7.5880 C.3   385  ASP385      0.1674
    103  C          4.3640   -0.1830    9.0170 C.2   385  ASP385      0.2266
    104  O          5.2660    0.0310    9.8300 O.2   385  ASP385     -0.2867
    105  CB         4.5390    0.5910    6.6430 C.3   385  ASP385      0.1410
    106  CG         5.7190    1.5400    6.6950 C.2   385  ASP385      0.3668
    107  OD1        6.8100    1.1340    7.1560 O.co2 385  ASP385     -0.2456
    108  OD2        5.5480    2.6980    6.2500 O.co2 385  ASP385     -0.2456
    109  N          5.5660   -2.7280   11.4970 N.3   388  ARG388     -0.1231
    110  CA         7.0010   -2.8520   11.6160 C.3   388  ARG388      0.1694
    111  C          7.6770   -1.6130   12.2080 C.2   388  ARG388      0.2592
    112  O          8.6780   -1.7410   12.9020 O.2   388  ARG388     -0.2718
    113  CB         7.6440   -3.3440   10.3110 C.3   388  ARG388      0.0321
    114  CG         7.7180   -2.3500    9.1830 C.3   388  ARG388      0.0489
    115  CD         8.5090   -2.9420    8.0450 C.3   388  ARG388      0.2205
    116  NE         8.6310   -1.9970    6.9500 N.pl3 388  ARG388     -0.0865
    117  CZ         7.7900   -1.9450    5.9240 C.cat 388  ARG388      0.5346
    118  NH1        6.7710   -2.7970    5.8480 N.pl3 388  ARG388      0.1354
    119  NH2        7.9720   -1.0440    4.9680 N.pl3 388  ARG388      0.1354
    120  N          7.1180   -0.4280   11.9730 N.am  389  THR389     -0.1953
    121  CA         7.7140    0.8030   12.5110 C.3   389  THR389      0.1897
    122  C          7.5320    0.8800   14.0240 C.2   389  THR389      0.2313
    123  O          8.3690    1.4260   14.7540 O.2   389  THR389     -0.2863
    124  CB         7.0900    2.0760   11.9080 C.3   389  THR389      0.1794
    125  OG1        6.7380    1.8620   10.5350 O.3   389  THR389     -0.2208
    126  CG2        8.0700    3.2390   12.0240 C.3   389  THR389      0.0378
    127  N         10.0880   -0.9530   15.3630 N.3   392  ASN392     -0.1240
    128  CA        11.3510   -0.2790   15.1290 C.3   392  ASN392      0.1653
    129  C         11.6840    0.7040   16.2450 C.2   392  ASN392      0.2266
    130  O         12.8650    0.9210   16.5260 O.2   392  ASN392     -0.2867
    131  CB        11.3780    0.4220   13.7610 C.3   392  ASN392      0.1155
    132  CG        11.5430   -0.5480   12.5890 C.2   392  ASN392      0.2627
    133  OD1       11.9320   -1.7080   12.7530 O.2   392  ASN392     -0.2716
    134  ND2       11.2450   -0.0600   11.3940 N.am  392  ASN392     -0.0877
@<TRIPOS>BOND
     1    76    75    2
     2    83    82    2
     3    71    70    1
     4    81    82    1
     5    81    80    1
     6    93    94    1
     7    82    84   am
     8    78    79    1
     9    78    77    1
    10    96    95    2
    11    95    94    1
    12    75    80   am
    13    75    74    1
    14    79    73    1
    15    94    97    1
    16    77    74    1
    17    91    92    2
    18    91    90    1
    19    72    70    1
    20    84    85    1
    21    70    67    1
    22    87    86    2
    23    73    74    1
    24    73    68   am
    25    85    86    1
    26    85    88    1
    27    86    89   am
    28    68    67    1
    29    68    69    2
    30    67    66    1
    31    89    90    1
    32    97    98    1
    33    98    99    1
    34    66    64   am
    35   119   117    1
    36    10     9    1
    37    65    64    2
    38    64    63    1
    39   118   117    1
    40   117   116    2
    41    99   100    1
    42    11     9    1
    43   108   106   ar
    44     9     8    2
    45   105   106    1
    46   105   102    1
    47   106   107   ar
    48    63    62    1
    49    57    58    1
    50   116   115    1
    51   101   102    1
    52    62    59   am
    53    60    59    2
    54    59    58    1
    55     8     7    1
    56   102   103    1
    57    56    54    1
    58    58    61    1
    59     7     6    1
    60    53    52    2
    61   115   114    1
    62    55    54    1
    63    54    51    1
    64    52    51    1
    65     5     6    1
    66     5     2    1
    67   103   104    2
    68     4     3    2
    69   114   113    1
    70    51    50    1
    71    49    48    1
    72     3     2    1
    73     3    12   am
    74    17    16    1
    75     2     1    1
    76   113   110    1
    77    16    13    1
    78   125   124    1
    79    47    48    1
    80    47    46    1
    81    13    12    1
    82    13    14    1
    83    29    28    1
    84    41    39    1
    85    38    37    2
    86    46    43    1
    87   134   132   am
    88   109   110    1
    89   110   111    1
    90    45    44    2
    91   124   126    1
    92   124   121    1
    93    37    36    1
    94   120   111   am
    95   120   121    1
    96    18    14   am
    97    18    19    1
    98    36    39    1
    99    36    35    1
   100    14    15    2
   101    28    25    1
   102   111   112    2
   103    39    40    1
   104    33    32    2
   105   121   122    1
   106    43    44    1
   107    43    42    1
   108   132   133    2
   109   132   131    1
   110    22    19    1
   111    22    23    1
   112    24    25    1
   113    24    20   am
   114    25    26    1
   115    19    20    1
   116    32    35   am
   117    32    31    1
   118    26    27    2
   119    20    21    2
   120   131   128    1
   121   122   123    2
   122    31    34    1
   123    31    30    1
   124   128   127    1
   125   128   129    1
   126   129   130    2
