@<TRIPOS>MOLECULE
tmp/2nwxB00.pdb
 104 93 0 0 0
SMALL
GASTEIGER

@<TRIPOS>ATOM
      1  N         -6.1370   39.8930   10.0410 N.3    75  VAL75      -0.1245
      2  CA        -6.6400   39.0670    8.9490 C.3    75  VAL75       0.1561
      3  C         -7.8920   39.7070    8.3740 C.2    75  VAL75       0.2260
      4  O         -7.9160   40.0650    7.2090 O.2    75  VAL75      -0.2867
      5  CB        -6.9400   37.6460    9.4420 C.3    75  VAL75       0.0252
      6  CG1       -7.9190   36.9190    8.5270 C.3    75  VAL75       0.0019
      7  CG2       -5.6390   36.8570    9.6070 C.3    75  VAL75       0.0019
      8  N         -2.8450   24.7630   -3.3150 N.3   110  LEU110     -0.1245
      9  CA        -3.5070   25.4720   -2.1920 C.3   110  LEU110      0.1561
     10  C         -3.2750   24.8320   -0.8170 C.2   110  LEU110      0.2260
     11  O         -2.7390   25.4550    0.0970 O.2   110  LEU110     -0.2867
     12  CB        -5.0120   25.6460   -2.4550 C.3   110  LEU110      0.0270
     13  CG        -5.8430   26.1080   -1.2540 C.3   110  LEU110      0.0019
     14  CD1       -5.8550   27.6320   -1.2060 C.3   110  LEU110      0.0001
     15  CD2       -7.2670   25.5230   -1.2660 C.3   110  LEU110      0.0001
     16  N         -0.0130   24.3350    0.2350 N.3   113  ILE113     -0.1231
     17  CA         0.5740   25.6460    0.5460 C.3   113  ILE113      0.1692
     18  C          0.4100   25.9210    2.0320 C.2   113  ILE113      0.2591
     19  O          1.3310   26.4130    2.6990 O.2   113  ILE113     -0.2718
     20  CB        -0.0860   26.8150   -0.2200 C.3   113  ILE113      0.0266
     21  CG1        0.0800   26.6400   -1.7340 C.3   113  ILE113      0.0019
     22  CG2        0.5090   28.1470    0.2380 C.3   113  ILE113      0.0020
     23  CD1       -0.5530   27.7320   -2.5560 C.3   113  ILE113      0.0001
     24  N         -0.7780   25.6060    2.5400 N.am  114  LEU114     -0.1980
     25  CA        -1.0820   25.7750    3.9460 C.3   114  LEU114      0.1596
     26  C         -0.1820   24.9030    4.7790 C.2   114  LEU114      0.2287
     27  O          0.4370   25.3790    5.7170 O.2   114  LEU114     -0.2864
     28  CB        -2.5400   25.4480    4.2070 C.3   114  LEU114      0.0297
     29  CG        -3.4500   26.3650    3.3860 C.3   114  LEU114      0.0022
     30  CD1       -4.9250   26.1780    3.7680 C.3   114  LEU114      0.0001
     31  CD2       -3.0230   27.8530    3.4860 C.3   114  LEU114      0.0001
     32  N          3.3050   26.3220    5.5620 N.3   117  ILE117     -0.1245
     33  CA         3.4910   27.3260    6.6110 C.3   117  ILE117      0.1561
     34  C          4.1160   26.6770    7.8470 C.2   117  ILE117      0.2260
     35  O          4.9350   27.2900    8.5290 O.2   117  ILE117     -0.2867
     36  CB         2.1810   28.0020    7.0280 C.3   117  ILE117      0.0252
     37  CG1        1.4290   28.5280    5.8120 C.3   117  ILE117      0.0019
     38  CG2        2.4810   29.1570    7.9390 C.3   117  ILE117      0.0019
     39  CD1        0.0140   28.9980    6.1230 C.3   117  ILE117      0.0001
     40  N         11.8780   32.5660    3.4900 N.3   130  GLN130     -0.1245
     41  CA        10.7200   31.8290    4.0540 C.3   130  GLN130      0.1566
     42  C         10.1610   32.4260    5.3300 C.2   130  GLN130      0.2260
     43  O          9.9390   31.7120    6.3230 O.2   130  GLN130     -0.2867
     44  CB        11.0330   30.3590    4.3140 C.3   130  GLN130      0.0367
     45  CG        10.7880   29.3980    3.1770 C.3   130  GLN130      0.0905
     46  CD        11.3180   27.9920    3.5220 C.2   130  GLN130      0.2608
     47  OE1       10.7180   27.2630    4.3490 O.2   130  GLN130     -0.2717
     48  NE2       12.4680   27.6200    2.9320 N.am  130  GLN130     -0.0878
     49  N          7.1700   33.2020    6.0910 N.3   132  LEU132     -0.1245
     50  CA         5.9290   32.7230    6.6290 C.3   132  LEU132      0.1561
     51  C          6.0280   31.5530    7.6060 C.2   132  LEU132      0.2260
     52  O          5.4380   31.6040    8.6710 O.2   132  LEU132     -0.2867
     53  CB         4.9500   32.4370    5.5090 C.3   132  LEU132      0.0270
     54  CG         3.6560   33.1860    5.7740 C.3   132  LEU132      0.0019
     55  CD1        3.8850   34.6880    5.6330 C.3   132  LEU132      0.0001
     56  CD2        2.5710   32.6910    4.8390 C.3   132  LEU132      0.0001
     57  N          3.5660   39.0200    8.4310 N.3   285  LEU285     -0.1245
     58  CA         2.4130   38.4160    7.8170 C.3   285  LEU285      0.1561
     59  C          1.8650   39.2940    6.6850 C.2   285  LEU285      0.2260
     60  O          1.7250   38.8510    5.5340 O.2   285  LEU285     -0.2867
     61  CB         1.3240   38.2230    8.8440 C.3   285  LEU285      0.0270
     62  CG         0.0740   37.6550    8.1790 C.3   285  LEU285      0.0019
     63  CD1       -0.0080   36.1460    8.4050 C.3   285  LEU285      0.0001
     64  CD2       -1.1640   38.3810    8.6750 C.3   285  LEU285      0.0001
     65  N          3.1730   40.0140    2.9900 N.3   288  THR288     -0.1203
     66  CA         3.0180   39.0070    1.9460 C.3   288  THR288      0.1994
     67  C          1.5450   38.6690    1.8070 C.2   288  THR288      0.2617
     68  O          1.1440   37.9650    0.8920 O.2   288  THR288     -0.2717
     69  CB         3.8760   37.6910    2.1720 C.3   288  THR288      0.1784
     70  OG1        3.1100   36.7130    2.8950 O.3   288  THR288     -0.2211
     71  CG2        5.2460   37.9580    2.8820 C.3   288  THR288      0.0376
     72  N          0.7300   39.1740    2.7100 N.am  289  ILE289     -0.1979
     73  CA        -0.6860   38.9160    2.5780 C.3   289  ILE289      0.1595
     74  C         -1.4460   40.1990    2.1960 C.2   289  ILE289      0.2287
     75  O         -2.3650   40.1650    1.3420 O.2   289  ILE289     -0.2864
     76  CB        -1.2700   38.1870    3.8250 C.3   289  ILE289      0.0276
     77  CG1       -1.1720   36.6870    3.6360 C.3   289  ILE289      0.0022
     78  CG2       -2.7520   38.4270    3.9950 C.3   289  ILE289      0.0022
     79  CD1        0.1850   36.1390    3.8360 C.3   289  ILE289      0.0001
     80  N         -7.6350   36.9460   -3.9270 N.3   327  LEU327     -0.1245
     81  CA        -6.9320   35.6650   -3.9200 C.3   327  LEU327      0.1561
     82  C         -5.5390   35.7060   -4.5080 C.2   327  LEU327      0.2260
     83  O         -4.6130   35.1010   -3.9720 O.2   327  LEU327     -0.2867
     84  CB        -7.7330   34.6210   -4.6970 C.3   327  LEU327      0.0270
     85  CG        -8.6790   33.7440   -3.8780 C.3   327  LEU327      0.0019
     86  CD1       -8.0050   33.3870   -2.5400 C.3   327  LEU327      0.0001
     87  CD2      -10.0530   34.4010   -3.6570 C.3   327  LEU327      0.0001
     88  N         -3.2930   38.0490   -2.1220 N.3   330  ILE330     -0.1231
     89  CA        -2.8650   37.1960   -1.0180 C.3   330  ILE330      0.1692
     90  C         -1.7050   36.2920   -1.4470 C.2   330  ILE330      0.2592
     91  O         -0.7340   36.1150   -0.6970 O.2   330  ILE330     -0.2718
     92  CB        -4.0130   36.3060   -0.5400 C.3   330  ILE330      0.0266
     93  CG1       -5.1240   37.1400    0.0740 C.3   330  ILE330      0.0019
     94  CG2       -3.5310   35.2920    0.4740 C.3   330  ILE330      0.0020
     95  CD1       -6.4520   36.3770    0.1090 C.3   330  ILE330      0.0001
     96  N         -1.8010   35.7390   -2.6500 N.am  331  GLY331     -0.1957
     97  CA        -0.7720   34.8550   -3.1480 C.3   331  GLY331      0.1869
     98  C          0.4840   35.5950   -3.5650 C.2   331  GLY331      0.2309
     99  O          1.5910   35.1590   -3.2570 O.2   331  GLY331     -0.2863
    100  N          3.7560   37.3010   -4.1970 N.3   333  ALA333     -0.1245
    101  CA         4.8350   37.4470   -3.2350 C.3   333  ALA333      0.1562
    102  C          5.3110   38.8910   -3.0830 C.2   333  ALA333      0.2260
    103  O          4.9050   39.7670   -3.8320 O.2   333  ALA333     -0.2867
    104  CB         5.9790   36.5550   -3.6170 C.3   333  ALA333      0.0290
@<TRIPOS>BOND
     1    84    81    1
     2    84    85    1
     3    82    83    2
     4    82    81    1
     5   100   101    1
     6    80    81    1
     7    85    87    1
     8    85    86    1
     9   103   102    2
    10   104   101    1
    11    98    99    2
    12    98    97    1
    13     8     9    1
    14   101   102    1
    15    97    96    1
    16    96    90   am
    17    23    21    1
    18    12     9    1
    19    12    13    1
    20     9    10    1
    21    88    89    1
    22    21    20    1
    23    90    89    1
    24    90    91    2
    25    15    13    1
    26    13    14    1
    27    89    92    1
    28    10    11    2
    29    92    93    1
    30    92    94    1
    31    20    22    1
    32    20    17    1
    33    93    95    1
    34    16    17    1
    35    17    18    1
    36    68    67    2
    37    75    74    2
    38    67    66    1
    39    67    72   am
    40    66    69    1
    41    66    65    1
    42    18    24   am
    43    18    19    2
    44    69    71    1
    45    69    70    1
    46    74    73    1
    47    24    25    1
    48    73    72    1
    49    73    76    1
    50    48    46   am
    51    45    46    1
    52    45    44    1
    53    29    31    1
    54    29    30    1
    55    29    28    1
    56    40    41    1
    57    46    47    2
    58    77    76    1
    59    77    79    1
    60    76    78    1
    61    25    28    1
    62    25    26    1
    63    41    44    1
    64    41    42    1
    65    26    27    2
    66    56    54    1
    67    42    43    2
    68    53    54    1
    69    53    50    1
    70    60    59    2
    71    32    33    1
    72    55    54    1
    73    37    39    1
    74    37    36    1
    75    49    50    1
    76    33    36    1
    77    33    34    1
    78    50    51    1
    79    59    58    1
    80    36    38    1
    81     4     3    2
    82    51    52    2
    83    58    57    1
    84    58    61    1
    85    34    35    2
    86    62    63    1
    87    62    64    1
    88    62    61    1
    89     3     2    1
    90     6     5    1
    91     2     5    1
    92     2     1    1
    93     5     7    1
