@<TRIPOS>MOLECULE
tmp/2nx0A00.pdb
 203 194 0 0 0
SMALL
GASTEIGER

@<TRIPOS>ATOM
      1  N          6.7400   -9.9190   10.5210 N.3    28  LEU28      -0.1245
      2  CA         6.7260   -9.6110   11.9290 C.3    28  LEU28       0.1561
      3  C          6.1780  -10.8200   12.7180 C.2    28  LEU28       0.2260
      4  O          6.7620  -11.2370   13.7440 O.2    28  LEU28      -0.2867
      5  CB         5.8270   -8.3820   12.1560 C.3    28  LEU28       0.0270
      6  CG         5.6600   -7.9830   13.6290 C.3    28  LEU28       0.0019
      7  CD1        6.9570   -7.4890   14.2440 C.3    28  LEU28       0.0001
      8  CD2        4.5540   -6.9310   13.7610 C.3    28  LEU28       0.0001
      9  N          4.3220  -11.1070   18.9260 N.3    35  THR35      -0.1218
     10  CA         3.6520   -9.8680   18.6020 C.3    35  THR35       0.1862
     11  C          2.2540  -10.1020   18.0680 C.2    35  THR35       0.2287
     12  O          1.3980   -9.1920   18.1070 O.2    35  THR35      -0.2866
     13  CB         4.4420   -9.0520   17.5700 C.3    35  THR35       0.1770
     14  OG1        4.5340   -9.7440   16.3310 O.3    35  THR35      -0.2211
     15  CG2        5.7940   -8.6580   18.1130 C.3    35  THR35       0.0375
     16  N         -0.7770   -9.3490   20.1500 N.3    38  LEU38      -0.1231
     17  CA        -1.0550   -7.9370   20.3940 C.3    38  LEU38       0.1693
     18  C         -2.0230   -7.3680   19.3560 C.2    38  LEU38       0.2592
     19  O         -2.4840   -6.2260   19.5050 O.2    38  LEU38      -0.2718
     20  CB         0.2610   -7.1290   20.3710 C.3    38  LEU38       0.0284
     21  CG         1.1570   -7.4590   21.5350 C.3    38  LEU38       0.0019
     22  CD1        2.5510   -6.8360   21.3190 C.3    38  LEU38       0.0001
     23  CD2        0.5540   -6.9500   22.8310 C.3    38  LEU38       0.0001
     24  N         -2.3900   -8.1700   18.3210 N.am   39  PHE39      -0.1963
     25  CA        -3.3980   -7.7880   17.3540 C.3    39  PHE39       0.1756
     26  C         -4.5690   -8.7700   17.5200 C.2    39  PHE39       0.2461
     27  O         -4.5760   -9.8270   16.8610 O.2    39  PHE39      -0.2730
     28  CB        -2.8740   -7.9440   15.9180 C.3    39  PHE39       0.0574
     29  CG        -1.7790   -6.9800   15.5350 C.ar   39  PHE39      -0.0200
     30  CD1       -0.4690   -7.2150   15.8780 C.ar   39  PHE39      -0.0042
     31  CD2       -2.0810   -5.8200   14.7970 C.ar   39  PHE39      -0.0042
     32  CE1        0.5390   -6.3330   15.4850 C.ar   39  PHE39      -0.0003
     33  CE2       -1.0690   -4.9480   14.4000 C.ar   39  PHE39      -0.0003
     34  CZ         0.2530   -5.2160   14.7350 C.ar   39  PHE39      -0.0000
     35  N         -5.4870   -8.5630   18.4450 N.am   40  PRO40      -0.2716
     36  CA        -6.5350   -9.5990   18.6640 C.3    40  PRO40       0.1536
     37  C         -7.2860   -9.9810   17.3980 C.2    40  PRO40       0.2598
     38  O         -7.7790  -11.1320   17.3200 O.2    40  PRO40      -0.2715
     39  CB        -7.4450   -8.9420   19.7070 C.3    40  PRO40       0.0310
     40  CG        -6.5050   -8.0570   20.4880 C.3    40  PRO40       0.0237
     41  CD        -5.5810   -7.4560   19.4330 C.3    40  PRO40       0.0939
     42  N         -7.4200   -9.0700   16.4140 N.am   41  LYS41      -0.1964
     43  CA        -8.0960   -9.4600   15.1880 C.3    41  LYS41       0.1728
     44  C         -7.3140  -10.5300   14.3770 C.2    41  LYS41       0.2616
     45  O         -7.9040  -11.2880   13.5980 O.2    41  LYS41      -0.2715
     46  CB        -8.3310   -8.2310   14.2930 C.3    41  LYS41       0.0311
     47  CG        -9.2820   -7.2120   14.9140 C.3    41  LYS41       0.0038
     48  CD        -9.3470   -5.9990   14.0860 C.3    41  LYS41       0.0206
     49  CE       -10.2940   -4.9750   14.6690 C.3    41  LYS41       0.1093
     50  NZ       -10.2720   -3.6970   13.9240 N.3    41  LYS41      -0.1314
     51  N         -5.9930  -10.5650   14.5410 N.am   42  PHE42      -0.1974
     52  CA        -5.1290  -11.4780   13.8080 C.3    42  PHE42       0.1639
     53  C         -4.5770  -12.6050   14.6770 C.2    42  PHE42       0.2290
     54  O         -4.0750  -13.5940   14.1420 O.2    42  PHE42      -0.2864
     55  CB        -3.9330  -10.7490   13.1910 C.3    42  PHE42       0.0560
     56  CG        -4.3110   -9.6040   12.2950 C.ar   42  PHE42      -0.0200
     57  CD1       -5.5000   -9.5930   11.5760 C.ar   42  PHE42      -0.0042
     58  CD2       -3.4390   -8.5200   12.1980 C.ar   42  PHE42      -0.0042
     59  CE1       -5.8000   -8.5310   10.7140 C.ar   42  PHE42      -0.0003
     60  CE2       -3.7680   -7.4650   11.3470 C.ar   42  PHE42      -0.0003
     61  CZ        -4.9340   -7.4470   10.6310 C.ar   42  PHE42      -0.0000
     62  N         -4.1540   -3.7860    6.8010 N.3    59  HIS59      -0.1241
     63  CA        -3.6380   -3.1340    7.9950 C.3    59  HIS59       0.1621
     64  C         -2.1880   -2.7280    7.7840 C.2    59  HIS59       0.2264
     65  O         -1.7540   -1.6200    8.1750 O.2    59  HIS59      -0.2867
     66  CB        -3.8270   -3.9690    9.2460 C.3    59  HIS59       0.0745
     67  CG        -3.4670   -3.1970   10.4430 C.ar   59  HIS59       0.0817
     68  ND1       -4.1240   -2.0290   10.7590 N.ar   59  HIS59      -0.2268
     69  CD2       -2.4300   -3.2820   11.3120 C.ar   59  HIS59       0.1154
     70  CE1       -3.5390   -1.4800   11.8190 C.ar   59  HIS59       0.1986
     71  NE2       -2.5000   -2.2160   12.1760 N.ar   59  HIS59      -0.2212
     72  N         -2.0730    0.4910    5.9980 N.3    62  THR62      -0.1203
     73  CA        -2.3540    1.6210    6.9140 C.3    62  THR62       0.1994
     74  C         -1.0980    1.9880    7.7000 C.2    62  THR62       0.2617
     75  O         -0.7600    3.1860    7.8530 O.2    62  THR62      -0.2717
     76  CB        -3.4570    1.1980    7.9100 C.3    62  THR62       0.1784
     77  OG1       -4.6490    0.9870    7.1620 O.3    62  THR62      -0.2211
     78  CG2       -3.6460    2.1850    9.0790 C.3    62  THR62       0.0376
     79  N         -0.3860    0.9850    8.2030 N.am   63  VAL63      -0.1979
     80  CA         0.8240    1.1990    8.9690 C.3    63  VAL63       0.1595
     81  C          1.8710    1.9230    8.1010 C.2    63  VAL63       0.2287
     82  O          2.4780    2.9400    8.5180 O.2    63  VAL63      -0.2864
     83  CB         1.3690   -0.1070    9.4900 C.3    63  VAL63       0.0276
     84  CG1        2.7360    0.0700   10.0830 C.3    63  VAL63       0.0022
     85  CG2        0.3590   -0.6790   10.4970 C.3    63  VAL63       0.0022
     86  N          1.1050    5.5000    7.1820 N.3    66  LYS66      -0.1231
     87  CA         1.3160    6.4180    8.3230 C.3    66  LYS66       0.1693
     88  C          2.8190    6.6610    8.4800 C.2    66  LYS66       0.2591
     89  O          3.2840    7.8080    8.7130 O.2    66  LYS66      -0.2718
     90  CB         0.7030    5.8090    9.5790 C.3    66  LYS66       0.0285
     91  CG         0.9280    6.6340   10.8330 C.3    66  LYS66       0.0035
     92  CD         0.2980    8.0000   10.7660 C.3    66  LYS66       0.0206
     93  CE        -1.1730    8.0000   10.4760 C.3    66  LYS66       0.1093
     94  NZ        -1.7240    9.3730   10.4450 N.3    66  LYS66      -0.1314
     95  N          3.6250    5.5790    8.3940 N.am   67  LEU67      -0.1980
     96  CA         5.0490    5.7680    8.4900 C.3    67  LEU67       0.1596
     97  C          5.5580    6.6590    7.3510 C.2    67  LEU67       0.2287
     98  O          6.4380    7.5120    7.5650 O.2    67  LEU67      -0.2864
     99  CB         5.7470    4.3960    8.4580 C.3    67  LEU67       0.0297
    100  CG         7.2400    4.4590    8.6040 C.3    67  LEU67       0.0022
    101  CD1        7.6640    5.2080    9.8750 C.3    67  LEU67       0.0001
    102  CD2        7.8040    3.0650    8.6240 C.3    67  LEU67       0.0001
    103  N          5.1750   10.1820    8.3440 N.3    70  LEU70      -0.1245
    104  CA         6.2390   10.5790    9.2700 C.3    70  LEU70       0.1561
    105  C          7.5400   10.8170    8.5330 C.2    70  LEU70       0.2260
    106  O          8.2360   11.7760    8.7910 O.2    70  LEU70      -0.2867
    107  CB         6.4600    9.5420   10.3670 C.3    70  LEU70       0.0270
    108  CG         5.3350    9.3640   11.3920 C.3    70  LEU70       0.0019
    109  CD1        5.5840    8.1380   12.2150 C.3    70  LEU70       0.0001
    110  CD2        5.2130   10.5990   12.2810 C.3    70  LEU70       0.0001
    111  N         -0.4970    8.8770   17.2540 N.3    84  LEU84      -0.1245
    112  CA         0.0110    7.5180   17.0450 C.3    84  LEU84       0.1561
    113  C          0.5130    6.9280   18.3730 C.2    84  LEU84       0.2260
    114  O          0.2320    5.7560   18.6680 O.2    84  LEU84      -0.2867
    115  CB         1.1130    7.5330   15.9800 C.3    84  LEU84       0.0270
    116  CG         1.6270    6.1570   15.5940 C.3    84  LEU84       0.0019
    117  CD1        0.5300    5.4010   14.8140 C.3    84  LEU84       0.0001
    118  CD2        2.9040    6.3500   14.7540 C.3    84  LEU84       0.0001
    119  N         -2.6350    6.4070   20.7620 N.3    87  SER87      -0.1202
    120  CA        -3.4790    5.2360   20.4950 C.3    87  SER87       0.2020
    121  C         -2.6790    3.9580   20.8060 C.2    87  SER87       0.2618
    122  O         -3.2720    2.9600   21.3230 O.2    87  SER87      -0.2717
    123  CB        -3.9470    5.2120   19.0610 C.3    87  SER87       0.2103
    124  OG        -2.8740    5.1190   18.1740 O.3    87  SER87      -0.2182
    125  N         -1.3950    3.9170   20.4900 N.am   88  HIS88      -0.1975
    126  CA        -0.6290    2.6670   20.7370 C.3    88  HIS88       0.1656
    127  C         -0.4140    2.4310   22.2050 C.2    88  HIS88       0.2291
    128  O         -0.4660    1.2540   22.6510 O.2    88  HIS88      -0.2864
    129  CB         0.6300    2.6410   19.8940 C.3    88  HIS88       0.0771
    130  CG         0.3220    2.3060   18.4630 C.ar   88  HIS88       0.0820
    131  ND1       -0.3540    3.1710   17.6240 N.ar   88  HIS88      -0.2267
    132  CD2        0.5480    1.1700   17.7170 C.ar   88  HIS88       0.1154
    133  CE1       -0.5530    2.5360   16.4460 C.ar   88  HIS88       0.1986
    134  NE2        0.0010    1.3310   16.4690 N.ar   88  HIS88      -0.2212
    135  N         -4.3120    0.3710   21.9980 N.3    92  HIS92      -0.1241
    136  CA        -3.7560   -0.9140   21.5310 C.3    92  HIS92       0.1621
    137  C         -2.8910   -1.5670   22.6340 C.2    92  HIS92       0.2264
    138  O         -2.6360   -2.7760   22.5820 O.2    92  HIS92      -0.2867
    139  CB        -2.9940   -0.7620   20.2480 C.3    92  HIS92       0.0745
    140  CG        -3.7020    0.0790   19.2460 C.ar   92  HIS92       0.0817
    141  ND1       -5.0500    0.0500   19.0320 N.ar   92  HIS92      -0.2268
    142  CD2       -3.2020    1.0320   18.4340 C.ar   92  HIS92       0.1154
    143  CE1       -5.3520    0.9900   18.1460 C.ar   92  HIS92       0.1986
    144  NE2       -4.2470    1.5790   17.7510 N.ar   92  HIS92      -0.2212
    145  N          0.4330   -1.3570   23.3710 N.3    94  ILE94      -0.1245
    146  CA         1.5980   -1.9760   22.7770 C.3    94  ILE94       0.1561
    147  C          2.8660   -1.5230   23.5120 C.2    94  ILE94       0.2260
    148  O          3.2650   -0.3450   23.4070 O.2    94  ILE94      -0.2867
    149  CB         1.7430   -1.5520   21.3000 C.3    94  ILE94       0.0252
    150  CG1        0.4700   -1.9040   20.5250 C.3    94  ILE94       0.0019
    151  CG2        2.9870   -2.1720   20.6520 C.3    94  ILE94       0.0019
    152  CD1       -0.0160   -3.3550   20.7230 C.3    94  ILE94       0.0001
    153  N          8.0720   -3.2840   21.1260 N.3    98  ASN98      -0.1225
    154  CA         7.5530   -3.8550   19.8840 C.3    98  ASN98       0.1785
    155  C          7.8240   -3.0020   18.6630 C.2    98  ASN98       0.2597
    156  O          7.9300   -3.5240   17.5320 O.2    98  ASN98      -0.2718
    157  CB         6.0740   -4.1050   20.0220 C.3    98  ASN98       0.1169
    158  CG         5.8090   -5.2030   21.0530 C.2    98  ASN98       0.2627
    159  OD1        6.0580   -6.3830   20.7400 O.2    98  ASN98      -0.2716
    160  ND2        5.3360   -4.8510   22.2570 N.am   98  ASN98      -0.0877
    161  N          7.9720   -1.6760   18.8350 N.am   99  PHE99      -0.1976
    162  CA         8.2960   -0.8520   17.6890 C.3    99  PHE99       0.1639
    163  C          9.6800   -1.1630   17.1330 C.2    99  PHE99       0.2290
    164  O          9.9080   -0.9990   15.9360 O.2    99  PHE99      -0.2864
    165  CB         8.1820    0.6390   18.0620 C.3    99  PHE99       0.0560
    166  CG         6.7620    1.0650   18.2430 C.ar   99  PHE99      -0.0200
    167  CD1        6.1390    1.0710   19.4790 C.ar   99  PHE99      -0.0042
    168  CD2        6.0460    1.5080   17.1540 C.ar   99  PHE99      -0.0042
    169  CE1        4.8020    1.4450   19.6090 C.ar   99  PHE99      -0.0003
    170  CE2        4.7260    1.9190   17.2830 C.ar   99  PHE99      -0.0003
    171  CZ         4.1180    1.8680   18.5270 C.ar   99  PHE99      -0.0000
    172  N          9.2370   -4.2220   14.7950 N.3   102  ILE102     -0.1245
    173  CA         8.6840   -3.9670   13.4820 C.3   102  ILE102      0.1561
    174  C          9.6800   -3.1570   12.6610 C.2   102  ILE102      0.2260
    175  O          9.7440   -3.3160   11.4330 O.2   102  ILE102     -0.2867
    176  CB         7.2850   -3.3470   13.5390 C.3   102  ILE102      0.0252
    177  CG1        6.5650   -3.5610   12.2070 C.3   102  ILE102      0.0019
    178  CG2        7.3030   -1.8860   13.9630 C.3   102  ILE102      0.0019
    179  CD1        5.1160   -3.0750   12.1970 C.3   102  ILE102      0.0001
    180  N         14.0430    5.3290   12.4600 N.3   128  MET128     -0.1245
    181  CA        13.1100    4.6350   13.3430 C.3   128  MET128      0.1570
    182  C         13.4810    4.9270   14.8130 C.2   128  MET128      0.2261
    183  O         12.5880    5.0240   15.6580 O.2   128  MET128     -0.2867
    184  CB        13.0960    3.1590   13.0620 C.3   128  MET128      0.0387
    185  CG        12.5300    2.8050   11.6860 C.3   128  MET128      0.0595
    186  SD        11.0040    3.5990   11.2100 S.3   128  MET128     -0.1393
    187  CE         9.9350    3.1040   12.5250 C.3   128  MET128      0.0692
    188  N         11.8520    8.1870   15.6510 N.3   131  ILE131     -0.1245
    189  CA        10.3940    8.0520   15.8010 C.3   131  ILE131      0.1561
    190  C         10.1060    7.3560   17.1180 C.2   131  ILE131      0.2260
    191  O          9.2180    7.7950   17.8660 O.2   131  ILE131     -0.2867
    192  CB         9.8390    7.2880   14.5930 C.3   131  ILE131      0.0252
    193  CG1        9.9350    8.2050   13.3590 C.3   131  ILE131      0.0019
    194  CG2        8.4130    6.8160   14.8860 C.3   131  ILE131      0.0019
    195  CD1        9.6860    7.4550   12.0370 C.3   131  ILE131      0.0001
    196  N          7.9040    8.4970   20.3010 N.3   135  LEU135     -0.1245
    197  CA         6.7810    7.6880   20.8060 C.3   135  LEU135      0.1561
    198  C          6.9910    7.4310   22.2870 C.2   135  LEU135      0.2260
    199  O          6.0610    7.5740   23.0860 O.2   135  LEU135     -0.2867
    200  CB         6.6830    6.3650   20.0670 C.3   135  LEU135      0.0270
    201  CG         6.2500    6.4360   18.6050 C.3   135  LEU135      0.0019
    202  CD1        6.4290    5.0490   17.9510 C.3   135  LEU135      0.0001
    203  CD2        4.8330    6.9470   18.4210 C.3   135  LEU135      0.0001
@<TRIPOS>BOND
     1    72    73    1
     2    62    63    1
     3    73    74    1
     4    73    76    1
     5    77    76    1
     6    86    87    1
     7    97    98    2
     8    97    96    1
     9    74    75    2
    10    74    79   am
    11    64    63    1
    12    64    65    2
    13    76    78    1
    14    63    66    1
    15    81    82    2
    16    81    80    1
    17    79    80    1
    18    87    88    1
    19    87    90    1
    20   103   104    1
    21    95    88   am
    22    95    96    1
    23    99    96    1
    24    99   100    1
    25    88    89    2
    26   105   106    2
    27   105   104    1
    28   100   102    1
    29   100   101    1
    30    80    83    1
    31    66    67    1
    32   104   107    1
    33    83    84    1
    34    83    85    1
    35    90    91    1
    36   107   108    1
    37    67    68   ar
    38    67    69   ar
    39    94    93    1
    40    93    92    1
    41     1     2    1
    42    61    59   ar
    43    61    60   ar
    44    59    57   ar
    45    68    70   ar
    46    92    91    1
    47   186   185    1
    48   186   187    1
    49    69    71   ar
    50    60    58   ar
    51   108   109    1
    52   108   110    1
    53   175   174    2
    54    57    56   ar
    55   185   184    1
    56    70    71   ar
    57     2     5    1
    58     2     3    1
    59   195   193    1
    60     5     6    1
    61   179   177    1
    62    58    56   ar
    63   177   176    1
    64    56    55    1
    65   180   181    1
    66   174   173    1
    67     3     4    2
    68   184   181    1
    69    55    52    1
    70   181   182    1
    71   193   192    1
    72   173   176    1
    73   173   172    1
    74   176   178    1
    75    45    44    2
    76     6     8    1
    77     6     7    1
    78    52    51    1
    79    52    53    1
    80    50    49    1
    81    48    49    1
    82    48    47    1
    83    54    53    2
    84    46    47    1
    85    46    43    1
    86    44    51   am
    87    44    43    1
    88    33    34   ar
    89    33    31   ar
    90   192   194    1
    91   192   189    1
    92    34    32   ar
    93   118   116    1
    94    31    29   ar
    95   182   183    2
    96   117   116    1
    97    43    42    1
    98    32    30   ar
    99    29    30   ar
   100    29    28    1
   101   116   115    1
   102   188   189    1
   103   189   190    1
   104    28    25    1
   105   164   163    2
   106   115   112    1
   107    14    13    1
   108    42    37   am
   109   133   134   ar
   110   133   131   ar
   111   134   132   ar
   112    27    26    2
   113   112   111    1
   114   112   113    1
   115   190   191    2
   116   163   162    1
   117   168   170   ar
   118   168   166   ar
   119   170   171   ar
   120    38    37    2
   121    25    26    1
   122    25    24    1
   123    37    36    1
   124    26    35   am
   125   156   155    2
   126    13    15    1
   127    13    10    1
   128   131   130   ar
   129   162   165    1
   130   162   161    1
   131   132   130   ar
   132   144   143   ar
   133   144   142   ar
   134   202   201    1
   135   165   166    1
   136    11    12    2
   137    11    10    1
   138   143   141   ar
   139   124   123    1
   140   166   167   ar
   141    24    18   am
   142   113   114    2
   143   203   201    1
   144   142   140   ar
   145    35    36    1
   146    35    41    1
   147   130   129    1
   148   171   169   ar
   149    10     9    1
   150   201   200    1
   151   155   161   am
   152   155   154    1
   153    36    39    1
   154   141   140   ar
   155   123   120    1
   156   140   139    1
   157    18    19    2
   158    18    17    1
   159    41    40    1
   160   167   169   ar
   161    39    40    1
   162   154   157    1
   163   154   153    1
   164   129   126    1
   165   157   158    1
   166   200   197    1
   167    16    17    1
   168   139   136    1
   169   196   197    1
   170    20    17    1
   171    20    21    1
   172   125   126    1
   173   125   121   am
   174   120   119    1
   175   120   121    1
   176   150   152    1
   177   150   149    1
   178   151   149    1
   179   126   127    1
   180   159   158    2
   181   197   198    1
   182   121   122    2
   183   158   160   am
   184   149   146    1
   185    22    21    1
   186   136   135    1
   187   136   137    1
   188    21    23    1
   189   127   128    2
   190   198   199    2
   191   138   137    2
   192   146   145    1
   193   146   147    1
   194   148   147    2
