@<TRIPOS>MOLECULE
tmp/2nx1A00.pdb
 132 124 0 0 0
SMALL
GASTEIGER

@<TRIPOS>ATOM
      1  N         33.0730   58.4400   25.9690 N.3    10  ASN10      -0.1240
      2  CA        33.6210   57.2870   25.2550 C.3    10  ASN10       0.1653
      3  C         34.7500   56.5980   26.0170 C.2    10  ASN10       0.2266
      4  O         34.7100   55.3880   26.2390 O.2    10  ASN10      -0.2867
      5  CB        34.1440   57.6940   23.8770 C.3    10  ASN10       0.1155
      6  CG        34.7690   56.5210   23.1230 C.2    10  ASN10       0.2627
      7  OD1       34.0710   55.7300   22.4790 O.2    10  ASN10      -0.2716
      8  ND2       36.0860   56.3930   23.2230 N.am   10  ASN10      -0.0877
      9  N         40.8130   51.8860   24.7340 N.3    45  LYS45      -0.1245
     10  CA        40.3790   51.8670   23.3430 C.3    45  LYS45       0.1561
     11  C         41.4380   50.9590   22.7150 C.2    45  LYS45       0.2260
     12  O         42.5050   51.4180   22.2880 O.2    45  LYS45      -0.2867
     13  CB        40.4390   53.2680   22.7310 C.3    45  LYS45       0.0271
     14  CG        39.7410   54.3470   23.5560 C.3    45  LYS45       0.0035
     15  CD        38.3530   53.9200   24.0390 C.3    45  LYS45       0.0206
     16  CE        37.3850   53.6620   22.8890 C.3    45  LYS45       0.1093
     17  NZ        36.0100   53.2970   23.3820 N.3    45  LYS45      -0.1314
     18  N         41.2210   49.2520   19.9750 N.3    47  ASN47      -0.1225
     19  CA        41.1250   49.1170   18.5310 C.3    47  ASN47       0.1785
     20  C         41.2610   50.4170   17.7450 C.2    47  ASN47       0.2597
     21  O         40.6450   50.5520   16.6840 O.2    47  ASN47      -0.2718
     22  CB        39.7900   48.4710   18.1620 C.3    47  ASN47       0.1169
     23  CG        38.6090   49.3900   18.4220 C.2    47  ASN47       0.2627
     24  OD1       37.5160   49.1780   17.8940 O.2    47  ASN47      -0.2716
     25  ND2       38.8210   50.4130   19.2430 N.am   47  ASN47      -0.0877
     26  N         42.0400   51.3750   18.2460 N.am   48  ARG48      -0.1966
     27  CA        42.2110   52.6350   17.5180 C.3    48  ARG48       0.1729
     28  C         42.8530   52.3290   16.1590 C.2    48  ARG48       0.2617
     29  O         43.5980   51.3580   16.0190 O.2    48  ARG48      -0.2715
     30  CB        43.1110   53.6200   18.2870 C.3    48  ARG48       0.0348
     31  CG        42.6100   54.0700   19.6730 C.3    48  ARG48       0.0492
     32  CD        41.2100   54.6830   19.6280 C.3    48  ARG48       0.2205
     33  NE        41.0950   55.8220   18.7170 N.pl3  48  ARG48      -0.0865
     34  CZ        41.2410   57.0980   19.0670 C.cat  48  ARG48       0.5346
     35  NH1       41.5190   57.4310   20.3240 N.pl3  48  ARG48       0.1354
     36  NH2       41.0850   58.0510   18.1580 N.pl3  48  ARG48       0.1354
     37  N         42.5610   53.1510   15.1580 N.am   49  SER49      -0.1936
     38  CA        43.1380   52.9450   13.8380 C.3    49  SER49       0.2055
     39  C         44.6440   53.1860   13.8730 C.2    49  SER49       0.2643
     40  O         45.4190   52.4290   13.2830 O.2    49  SER49      -0.2714
     41  CB        42.4960   53.8880   12.8160 C.3    49  SER49       0.2130
     42  OG        41.1290   53.5750   12.6240 O.3    49  SER49      -0.2179
     43  N         45.0520   54.2380   14.5770 N.am   50  SER50      -0.1949
     44  CA        46.4630   54.5960   14.6730 C.3    50  SER50       0.1924
     45  C         47.1320   54.2650   15.9960 C.2    50  SER50       0.2314
     46  O         46.5250   54.3570   17.0630 O.2    50  SER50      -0.2863
     47  CB        46.6450   56.0900   14.4130 C.3    50  SER50       0.2116
     48  OG        47.9590   56.4970   14.7630 O.3    50  SER50      -0.2180
     49  N         47.0790   57.2050   18.6120 N.3    53  SER53      -0.1217
     50  CA        45.8670   57.7150   19.2460 C.3    53  SER53       0.1889
     51  C         45.7280   57.3260   20.7200 C.2    53  SER53       0.2288
     52  O         46.3410   56.3710   21.1920 O.2    53  SER53      -0.2866
     53  CB        44.6340   57.2390   18.4720 C.3    53  SER53       0.2089
     54  OG        44.6170   57.7760   17.1610 O.3    53  SER53      -0.2183
     55  N         34.0430   44.4660   16.8240 N.3   102  PHE102     -0.1241
     56  CA        34.9880   43.6090   16.1100 C.3   102  PHE102      0.1605
     57  C         35.1920   42.2620   16.8030 C.2   102  PHE102      0.2264
     58  O         35.6370   41.2970   16.1730 O.2   102  PHE102     -0.2867
     59  CB        36.3640   44.2820   15.9780 C.3   102  PHE102      0.0534
     60  CG        36.3650   45.5680   15.1900 C.ar  102  PHE102     -0.0203
     61  CD1       35.4580   45.7840   14.1560 C.ar  102  PHE102     -0.0042
     62  CD2       37.3290   46.5450   15.4480 C.ar  102  PHE102     -0.0042
     63  CE1       35.5110   46.9540   13.3810 C.ar  102  PHE102     -0.0003
     64  CE2       37.3940   47.7180   14.6790 C.ar  102  PHE102     -0.0003
     65  CZ        36.4820   47.9210   13.6440 C.ar  102  PHE102     -0.0000
     66  N         24.8790   49.1060   15.8370 N.3   153  ARG153     -0.1245
     67  CA        25.8070   50.2260   15.7060 C.3   153  ARG153      0.1563
     68  C         26.2700   50.4570   14.2700 C.2   153  ARG153      0.2260
     69  O         27.3420   51.0180   14.0320 O.2   153  ARG153     -0.2867
     70  CB        27.0100   50.0450   16.6570 C.3   153  ARG153      0.0307
     71  CG        27.7480   48.7270   16.5080 C.3   153  ARG153      0.0489
     72  CD        28.9230   48.8530   15.5490 C.3   153  ARG153      0.2205
     73  NE        30.0220   49.6140   16.1350 N.pl3 153  ARG153     -0.0865
     74  CZ        30.5840   50.6770   15.5670 C.cat 153  ARG153      0.5346
     75  NH1       30.1450   51.1210   14.3930 N.pl3 153  ARG153      0.1354
     76  NH2       31.6080   51.2780   16.1570 N.pl3 153  ARG153      0.1354
     77  N         27.8270   55.7180   17.5600 N.3   184  HIS184     -0.1241
     78  CA        28.7020   54.9980   16.6320 C.3   184  HIS184      0.1621
     79  C         28.0300   54.7390   15.2890 C.2   184  HIS184      0.2264
     80  O         28.7050   54.5370   14.2770 O.2   184  HIS184     -0.2867
     81  CB        29.1720   53.6660   17.2230 C.3   184  HIS184      0.0745
     82  CG        30.1500   53.8230   18.3420 C.ar  184  HIS184      0.0817
     83  ND1       29.7950   53.6880   19.6660 N.ar  184  HIS184     -0.2268
     84  CD2       31.4610   54.1580   18.3360 C.ar  184  HIS184      0.1154
     85  CE1       30.8460   53.9330   20.4280 C.ar  184  HIS184      0.1986
     86  NE2       31.8690   54.2210   19.6460 N.ar  184  HIS184     -0.2212
     87  N         29.3020   57.2010   12.7290 N.3   187  GLN187     -0.1245
     88  CA        30.7360   57.3770   12.5000 C.3   187  GLN187      0.1566
     89  C         31.1600   56.9050   11.1150 C.2   187  GLN187      0.2260
     90  O         30.5410   56.0280   10.5230 O.2   187  GLN187     -0.2867
     91  CB        31.5730   56.6350   13.5510 C.3   187  GLN187      0.0367
     92  CG        31.3410   55.1420   13.6030 C.3   187  GLN187      0.0905
     93  CD        32.4920   54.3730   14.2400 C.2   187  GLN187      0.2608
     94  OE1       33.2800   54.9190   15.0160 O.2   187  GLN187     -0.2717
     95  NE2       32.5800   53.0920   13.9200 N.am  187  GLN187     -0.0878
     96  N         43.7990   58.7710    9.8530 N.3   194  ASP194     -0.1225
     97  CA        44.4260   58.1240   10.9990 C.3   194  ASP194      0.1805
     98  C         43.4000   57.9360   12.1210 C.2   194  ASP194      0.2598
     99  O         43.7090   57.3810   13.1760 O.2   194  ASP194     -0.2718
    100  CB        45.5970   58.9780   11.4970 C.3   194  ASP194      0.1424
    101  CG        45.1360   60.2460   12.1930 C.2   194  ASP194      0.3668
    102  OD1       44.2650   60.9520   11.6400 O.co2 194  ASP194     -0.2456
    103  OD2       45.6450   60.5420   13.2960 O.co2 194  ASP194     -0.2456
    104  N         42.1800   58.4080   11.8770 N.am  195  LYS195     -0.1966
    105  CA        41.0870   58.3110   12.8390 C.3   195  LYS195      0.1728
    106  C         39.7620   58.2350   12.0920 C.2   195  LYS195      0.2616
    107  O         39.6720   58.6200   10.9230 O.2   195  LYS195     -0.2715
    108  CB        41.0680   59.5390   13.7570 C.3   195  LYS195      0.0311
    109  CG        42.2980   59.6740   14.6280 C.3   195  LYS195      0.0038
    110  CD        42.2550   60.9200   15.4950 C.3   195  LYS195      0.0206
    111  CE        43.4830   60.9690   16.4010 C.3   195  LYS195      0.1093
    112  NZ        43.5090   62.1770   17.2690 N.3   195  LYS195     -0.1314
    113  N         38.7340   57.7420   12.7710 N.am  196  SER196     -0.1950
    114  CA        37.4180   57.6500   12.1630 C.3   196  SER196      0.1924
    115  C         36.7310   59.0020   12.2790 C.2   196  SER196      0.2314
    116  O         37.0220   59.7830   13.1910 O.2   196  SER196     -0.2863
    117  CB        36.5780   56.5740   12.8590 C.3   196  SER196      0.2116
    118  OG        37.1320   55.2850   12.6440 O.3   196  SER196     -0.2180
    119  N         38.9820   60.7750   21.9540 N.3   231  SER231     -0.1202
    120  CA        38.5240   59.7060   21.0820 C.3   231  SER231      0.2020
    121  C         37.0870   60.0000   20.6670 C.2   231  SER231      0.2618
    122  O         36.3510   60.6560   21.4020 O.2   231  SER231     -0.2717
    123  CB        38.5860   58.3600   21.8110 C.3   231  SER231      0.2103
    124  OG        37.7530   58.3600   22.9600 O.3   231  SER231     -0.2182
    125  N         36.7040   59.5210   19.4860 N.am  232  ASP232     -0.1973
    126  CA        35.3530   59.7040   18.9590 C.3   232  ASP232      0.1709
    127  C         34.8170   61.1290   19.1130 C.2   232  ASP232      0.2293
    128  O         33.6290   61.3250   19.3840 O.2   232  ASP232     -0.2864
    129  CB        34.3980   58.7250   19.6490 C.3   232  ASP232      0.1436
    130  CG        34.8030   57.2720   19.4490 C.2   232  ASP232      0.3671
    131  OD1       35.9400   56.9030   19.8120 O.co2 232  ASP232     -0.2456
    132  OD2       33.9790   56.4950   18.9290 O.co2 232  ASP232     -0.2456
@<TRIPOS>BOND
     1    96    97    1
     2    90    89    2
     3   107   106    2
     4    97   100    1
     5    97    98    1
     6    89    88    1
     7   100   101    1
     8   102   101   ar
     9   104    98   am
    10   104   105    1
    11   106   113   am
    12   106   105    1
    13    98    99    2
    14   114   115    1
    15   114   113    1
    16   114   117    1
    17   101   103   ar
    18   115   116    2
    19    88    87    1
    20    88    91    1
    21    42    41    1
    22   118   117    1
    23    41    38    1
    24   105   108    1
    25    40    39    2
    26    63    65   ar
    27    63    61   ar
    28    91    92    1
    29    92    93    1
    30    65    64   ar
    31   108   109    1
    32    38    39    1
    33    38    37    1
    34    39    43   am
    35    95    93   am
    36    69    68    2
    37    61    60   ar
    38    93    94    2
    39    68    67    1
    40    80    79    2
    41    75    74    1
    42    47    44    1
    43    47    48    1
    44    43    44    1
    45   109   110    1
    46    44    45    1
    47    64    62   ar
    48    37    28   am
    49    60    62   ar
    50    60    59    1
    51    79    78    1
    52   110   111    1
    53    72    73    1
    54    72    71    1
    55    74    73    2
    56    74    76    1
    57    67    66    1
    58    67    70    1
    59    59    56    1
    60    45    46    2
    61    29    28    2
    62    56    57    1
    63    56    55    1
    64    28    27    1
    65    58    57    2
    66   111   112    1
    67    71    70    1
    68    78    81    1
    69    78    77    1
    70    21    20    2
    71    54    53    1
    72    81    82    1
    73    27    26    1
    74    27    30    1
    75    20    26   am
    76    20    19    1
    77    24    23    2
    78    36    34    1
    79    22    23    1
    80    22    19    1
    81    30    31    1
    82    84    82   ar
    83    84    86   ar
    84    82    83   ar
    85    23    25   am
    86    53    50    1
    87    19    18    1
    88    49    50    1
    89    33    34    2
    90    33    32    1
    91   132   130   ar
    92   126   127    1
    93   126   125    1
    94   126   129    1
    95    34    35    1
    96   127   128    2
    97    50    51    1
    98   130   129    1
    99   130   131   ar
   100   125   121   am
   101    32    31    1
   102    86    85   ar
   103    83    85   ar
   104   121   120    1
   105   121   122    2
   106    51    52    2
   107   120   123    1
   108   120   119    1
   109   123   124    1
   110    12    11    2
   111     7     6    2
   112    11    10    1
   113    13    10    1
   114    13    14    1
   115    16    17    1
   116    16    15    1
   117     6     8   am
   118     6     5    1
   119    10     9    1
   120    14    15    1
   121     5     2    1
   122     2     1    1
   123     2     3    1
   124     3     4    2
