@<TRIPOS>MOLECULE
tmp/2nx3D00.pdb
 212 197 0 0 0
SMALL
GASTEIGER

@<TRIPOS>ATOM
      1  N         22.8570  -26.6400   13.3590 N.3     9  ASN9       -0.1240
      2  CA        22.0050  -27.8170   13.3380 C.3     9  ASN9        0.1653
      3  C         21.0900  -27.7630   12.1140 C.2     9  ASN9        0.2266
      4  O         21.0460  -28.6970   11.3130 O.2     9  ASN9       -0.2867
      5  CB        21.1530  -27.8750   14.6060 C.3     9  ASN9        0.1155
      6  CG        20.1880  -29.0380   14.5980 C.2     9  ASN9        0.2627
      7  OD1       20.5960  -30.1990   14.6510 O.2     9  ASN9       -0.2716
      8  ND2       18.8970  -28.7360   14.5200 N.am    9  ASN9       -0.0877
      9  N         28.4230  -29.1430    8.5140 N.3    39  LYS39      -0.1245
     10  CA        27.1960  -29.9000    8.7380 C.3    39  LYS39       0.1561
     11  C         26.0070  -28.9970    9.0150 C.2    39  LYS39       0.2260
     12  O         26.1270  -27.9590    9.6680 O.2    39  LYS39      -0.2867
     13  CB        27.3860  -30.8710    9.9160 C.3    39  LYS39       0.0271
     14  CG        26.1540  -31.7200   10.2990 C.3    39  LYS39       0.0035
     15  CD        25.1170  -30.9290   11.1040 C.3    39  LYS39       0.0206
     16  CE        23.9800  -31.8140   11.6130 C.3    39  LYS39       0.1093
     17  NZ        23.2490  -32.5070   10.5170 N.3    39  LYS39      -0.1314
     18  N         21.3390  -29.4790    8.6770 N.3    41  SER41      -0.1217
     19  CA        20.1900  -30.1730    8.1270 C.3    41  SER41       0.1889
     20  C         19.2240  -29.1880    7.4880 C.2    41  SER41       0.2288
     21  O         18.9530  -28.1160    8.0360 O.2    41  SER41      -0.2866
     22  CB        19.4840  -30.9660    9.2300 C.3    41  SER41       0.2089
     23  OG        20.3760  -31.8840    9.8440 O.3    41  SER41      -0.2183
     24  N         14.3500  -30.7600    9.8170 N.3    44  LYS44      -0.1245
     25  CA        14.2760  -31.5440   11.0380 C.3    44  LYS44       0.1561
     26  C         13.0150  -32.3730   10.8180 C.2    44  LYS44       0.2260
     27  O         11.9110  -31.9340   11.1230 O.2    44  LYS44      -0.2867
     28  CB        14.1070  -30.6320   12.2530 C.3    44  LYS44       0.0271
     29  CG        15.0560  -29.4350   12.3000 C.3    44  LYS44       0.0035
     30  CD        16.5190  -29.8250   12.0930 C.3    44  LYS44       0.0206
     31  CE        17.0160  -30.8050   13.1470 C.3    44  LYS44       0.1093
     32  NZ        18.4710  -31.0940   12.9690 N.3    44  LYS44      -0.1314
     33  N         12.0610  -35.0610   12.3230 N.3    46  ASN46      -0.1225
     34  CA        11.5330  -35.7470   13.5000 C.3    46  ASN46       0.1785
     35  C         11.3690  -34.8940   14.7480 C.2    46  ASN46       0.2597
     36  O         11.6380  -35.3640   15.8470 O.2    46  ASN46      -0.2718
     37  CB        12.4060  -36.9590   13.8530 C.3    46  ASN46       0.1169
     38  CG        13.8480  -36.5770   14.1700 C.2    46  ASN46       0.2627
     39  OD1       14.1460  -35.4310   14.5150 O.2    46  ASN46      -0.2716
     40  ND2       14.7480  -37.5490   14.0640 N.am   46  ASN46      -0.0877
     41  N         10.9410  -33.6460   14.5920 N.am   47  ARG47      -0.1966
     42  CA        10.7350  -32.7870   15.7540 C.3    47  ARG47       0.1729
     43  C          9.6220  -33.4070   16.5950 C.2    47  ARG47       0.2617
     44  O          8.8510  -34.2280   16.0970 O.2    47  ARG47      -0.2715
     45  CB        10.3250  -31.3750   15.3230 C.3    47  ARG47       0.0348
     46  CG        11.3570  -30.6420   14.4690 C.3    47  ARG47       0.0492
     47  CD        12.7210  -30.6370   15.1360 C.3    47  ARG47       0.2205
     48  NE        12.7090  -30.0150   16.4590 N.pl3  47  ARG47      -0.0865
     49  CZ        12.7900  -28.7090   16.6810 C.cat  47  ARG47       0.5346
     50  NH1       12.8900  -27.8640   15.6640 N.pl3  47  ARG47       0.1354
     51  NH2       12.7850  -28.2460   17.9240 N.pl3  47  ARG47       0.1354
     52  N          9.5390  -33.0300   17.8670 N.am   48  SER48      -0.1936
     53  CA         8.4950  -33.5760   18.7330 C.3    48  SER48       0.2055
     54  C          7.1540  -32.9020   18.4540 C.2    48  SER48       0.2643
     55  O          6.1290  -33.5710   18.3140 O.2    48  SER48      -0.2714
     56  CB         8.8560  -33.3820   20.2140 C.3    48  SER48       0.2130
     57  OG        10.0830  -34.0110   20.5460 O.3    48  SER48      -0.2179
     58  N          7.1730  -31.5730   18.3720 N.am   49  SER49      -0.1949
     59  CA         5.9640  -30.7950   18.1320 C.3    49  SER49       0.1924
     60  C          5.7560  -30.4050   16.6770 C.2    49  SER49       0.2314
     61  O          6.6940  -29.9950   15.9870 O.2    49  SER49      -0.2863
     62  CB         5.9810  -29.5260   18.9790 C.3    49  SER49       0.2116
     63  OG         4.8900  -28.6840   18.6430 O.3    49  SER49      -0.2180
     64  N          7.0780  -26.9120   15.7240 N.3    52  SER52      -0.1217
     65  CA         8.4880  -26.5230   15.7880 C.3    52  SER52       0.1889
     66  C          9.1650  -26.3690   14.4240 C.2    52  SER52       0.2288
     67  O          8.7970  -27.0300   13.4520 O.2    52  SER52      -0.2866
     68  CB         9.2760  -27.5210   16.6430 C.3    52  SER52       0.2089
     69  OG         8.9800  -27.3550   18.0200 O.3    52  SER52      -0.2183
     70  N         21.8550  -34.7730    6.5640 N.3    79  ASP79      -0.1239
     71  CA        21.1070  -36.0160    6.7310 C.3    79  ASP79       0.1674
     72  C         19.8740  -36.1720    5.8540 C.2    79  ASP79       0.2266
     73  O         19.1380  -35.2150    5.6150 O.2    79  ASP79      -0.2867
     74  CB        20.7140  -36.1860    8.2090 C.3    79  ASP79       0.1410
     75  CG        19.9120  -35.0080    8.7470 C.2    79  ASP79       0.3668
     76  OD1       20.2270  -33.8510    8.3860 O.co2  79  ASP79      -0.2456
     77  OD2       18.9750  -35.2330    9.5470 O.co2  79  ASP79      -0.2456
     78  N         24.5620  -38.4230    6.0120 N.3    97  GLN97      -0.1245
     79  CA        24.2310  -38.7920    7.3840 C.3    97  GLN97       0.1566
     80  C         22.8680  -39.4590    7.5120 C.2    97  GLN97       0.2260
     81  O         21.8740  -38.9970    6.9510 O.2    97  GLN97      -0.2867
     82  CB        24.2710  -37.5550    8.2830 C.3    97  GLN97       0.0367
     83  CG        23.9490  -37.8240    9.7490 C.3    97  GLN97       0.0905
     84  CD        24.0080  -36.5560   10.5900 C.2    97  GLN97       0.2608
     85  OE1       25.0310  -35.8740   10.6310 O.2    97  GLN97      -0.2717
     86  NE2       22.9100  -36.2360   11.2600 N.am   97  GLN97      -0.0878
     87  N         19.9970  -40.4370   10.1390 N.3    99  PRO99      -0.2102
     88  CA        19.4330  -40.1420   11.4620 C.3    99  PRO99       0.1504
     89  C         19.3240  -41.3670   12.3810 C.2    99  PRO99       0.2576
     90  O         19.0440  -42.4830   11.9310 O.2    99  PRO99      -0.2718
     91  CB        18.0700  -39.5460   11.1250 C.3    99  PRO99       0.0282
     92  CG        18.3420  -38.8340    9.8330 C.3    99  PRO99       0.0208
     93  CD        19.1600  -39.8540    9.0750 C.3    99  PRO99       0.0893
     94  N         19.5370  -41.1350   13.6740 N.am  100  ALA100     -0.1966
     95  CA        19.4950  -42.1870   14.6840 C.3   100  ALA100      0.1728
     96  C         18.2500  -43.0720   14.6270 C.2   100  ALA100      0.2616
     97  O         18.3680  -44.2960   14.5630 O.2   100  ALA100     -0.2715
     98  CB        19.6390  -41.5700   16.0780 C.3   100  ALA100      0.0334
     99  N         17.0640  -42.4640   14.6490 N.am  101  PHE101     -0.1974
    100  CA        15.8170  -43.2330   14.6010 C.3   101  PHE101      0.1639
    101  C         15.6970  -44.0960   13.3490 C.2   101  PHE101      0.2290
    102  O         15.0050  -45.1160   13.3560 O.2   101  PHE101     -0.2864
    103  CB        14.5900  -42.3120   14.6570 C.3   101  PHE101      0.0560
    104  CG        14.4740  -41.5150   15.9230 C.ar  101  PHE101     -0.0200
    105  CD1       15.0320  -41.9780   17.1130 C.ar  101  PHE101     -0.0042
    106  CD2       13.7910  -40.3070   15.9300 C.ar  101  PHE101     -0.0042
    107  CE1       14.9100  -41.2430   18.2930 C.ar  101  PHE101     -0.0003
    108  CE2       13.6610  -39.5680   17.1000 C.ar  101  PHE101     -0.0003
    109  CZ        14.2230  -40.0370   18.2890 C.ar  101  PHE101     -0.0000
    110  N         24.1060  -42.4400   12.4510 N.3   122  LYS122     -0.1245
    111  CA        23.9510  -42.0840   13.8560 C.3   122  LYS122      0.1561
    112  C         23.4420  -43.3540   14.5440 C.2   122  LYS122      0.2260
    113  O         22.4350  -43.9210   14.1160 O.2   122  LYS122     -0.2867
    114  CB        22.9110  -40.9790   14.0120 C.3   122  LYS122      0.0271
    115  CG        23.3940  -39.5840   13.6670 C.3   122  LYS122      0.0035
    116  CD        24.4560  -39.1240   14.6480 C.3   122  LYS122      0.0206
    117  CE        24.7410  -37.6380   14.5070 C.3   122  LYS122      0.1093
    118  NZ        23.6040  -36.7930   14.9670 N.3   122  LYS122     -0.1314
    119  N         19.3440  -44.7760   19.6460 N.3   125  GLN125     -0.1245
    120  CA        19.3150  -44.7140   21.1090 C.3   125  GLN125      0.1566
    121  C         18.8650  -46.0440   21.6970 C.2   125  GLN125      0.2260
    122  O         19.0330  -46.3020   22.8910 O.2   125  GLN125     -0.2867
    123  CB        18.3570  -43.6170   21.5820 C.3   125  GLN125      0.0367
    124  CG        18.7620  -42.2080   21.1800 C.3   125  GLN125      0.0905
    125  CD        18.1980  -41.7990   19.8440 C.2   125  GLN125      0.2608
    126  OE1       17.9980  -42.6290   18.9630 O.2   125  GLN125     -0.2717
    127  NE2       17.9520  -40.5080   19.6770 N.am  125  GLN125     -0.0878
    128  N         25.8930  -41.1960   19.8570 N.3   152  ARG152     -0.1245
    129  CA        25.0920  -40.0470   20.2450 C.3   152  ARG152      0.1563
    130  C         24.2190  -40.2830   21.4910 C.2   152  ARG152      0.2260
    131  O         23.2050  -39.6140   21.6840 O.2   152  ARG152     -0.2867
    132  CB        24.2360  -39.5830   19.0550 C.3   152  ARG152      0.0307
    133  CG        23.3690  -40.6590   18.3990 C.3   152  ARG152      0.0489
    134  CD        21.9530  -40.1330   18.2650 C.3   152  ARG152      0.2205
    135  NE        21.5180  -39.6290   19.5620 N.pl3 152  ARG152     -0.0865
    136  CZ        20.8600  -38.4960   19.7560 C.cat 152  ARG152      0.5346
    137  NH1       20.5330  -37.7210   18.7340 N.pl3 152  ARG152      0.1354
    138  NH2       20.5600  -38.1270   20.9880 N.pl3 152  ARG152      0.1354
    139  N         24.5220  -33.8840   20.9620 N.3   183  HIS183     -0.1241
    140  CA        23.3110  -34.6380   21.2640 C.3   183  HIS183      0.1621
    141  C         23.4820  -35.7200   22.3260 C.2   183  HIS183      0.2264
    142  O         22.4990  -36.3110   22.7680 O.2   183  HIS183     -0.2867
    143  CB        22.7420  -35.2650   19.9910 C.3   183  HIS183      0.0745
    144  CG        22.5330  -34.2870   18.8800 C.ar  183  HIS183      0.0817
    145  ND1       23.5190  -33.9750   17.9690 N.ar  183  HIS183     -0.2268
    146  CD2       21.4590  -33.5340   18.5450 C.ar  183  HIS183      0.1154
    147  CE1       23.0610  -33.0740   17.1190 C.ar  183  HIS183      0.1986
    148  NE2       21.8140  -32.7890   17.4470 N.ar  183  HIS183     -0.2212
    149  N         21.9190  -34.2760   25.3920 N.3   186  GLN186     -0.1245
    150  CA        20.5730  -33.7270   25.2650 C.3   186  GLN186      0.1566
    151  C         19.5760  -34.5450   26.0870 C.2   186  GLN186      0.2260
    152  O         19.8240  -35.7050   26.4210 O.2   186  GLN186     -0.2867
    153  CB        20.1200  -33.7000   23.7980 C.3   186  GLN186      0.0367
    154  CG        19.6430  -35.0430   23.2500 C.3   186  GLN186      0.0905
    155  CD        18.8900  -34.9060   21.9350 C.2   186  GLN186      0.2608
    156  OE1       17.8760  -34.2110   21.8540 O.2   186  GLN186     -0.2717
    157  NE2       19.3840  -35.5740   20.8980 N.am  186  GLN186     -0.0878
    158  N         12.7610  -34.8730   24.6210 N.3   189  GLY189     -0.1225
    159  CA        11.4380  -34.4960   25.0930 C.3   189  GLY189      0.1811
    160  C         11.4830  -33.8580   26.4670 C.2   189  GLY189      0.2280
    161  O         10.4720  -33.7840   27.1600 O.2   189  GLY189     -0.2866
    162  N          7.1870  -30.3820   24.6990 N.3   193  ASP193     -0.1225
    163  CA         7.0220  -30.6010   23.2680 C.3   193  ASP193      0.1805
    164  C          8.2930  -30.1600   22.5490 C.2   193  ASP193      0.2598
    165  O          8.2950  -29.9260   21.3420 O.2   193  ASP193     -0.2718
    166  CB         5.8110  -29.8190   22.7420 C.3   193  ASP193      0.1424
    167  CG         5.9240  -28.3240   22.9860 C.2   193  ASP193      0.3668
    168  OD1        6.1030  -27.9190   24.1550 O.co2 193  ASP193     -0.2456
    169  OD2        5.8280  -27.5550   22.0050 O.co2 193  ASP193     -0.2456
    170  N          9.3740  -30.0510   23.3160 N.am  194  LYS194     -0.1966
    171  CA        10.6740  -29.6460   22.7940 C.3   194  LYS194      0.1728
    172  C         11.7520  -30.3610   23.6060 C.2   194  LYS194      0.2616
    173  O         11.5830  -30.5810   24.8040 O.2   194  LYS194     -0.2715
    174  CB        10.8430  -28.1280   22.9260 C.3   194  LYS194      0.0311
    175  CG         9.7360  -27.3210   22.2580 C.3   194  LYS194      0.0038
    176  CD         9.8460  -25.8330   22.5710 C.3   194  LYS194      0.0206
    177  CE         8.6670  -25.0560   21.9890 C.3   194  LYS194      0.1093
    178  NZ         8.7480  -23.5930   22.2690 N.3   194  LYS194     -0.1314
    179  N         12.8520  -30.7310   22.9580 N.am  195  SER195     -0.1950
    180  CA        13.9390  -31.4150   23.6520 C.3   195  SER195      0.1924
    181  C         14.8000  -30.4210   24.4210 C.2   195  SER195      0.2314
    182  O         14.8800  -29.2460   24.0620 O.2   195  SER195     -0.2863
    183  CB        14.8110  -32.1910   22.6600 C.3   195  SER195      0.2116
    184  OG        14.1370  -33.3350   22.1660 O.3   195  SER195     -0.2180
    185  N         31.8490  -34.6890   16.4960 N.3   218  PHE218     -0.1241
    186  CA        30.7010  -34.0880   15.8280 C.3   218  PHE218      0.1605
    187  C         30.0930  -33.0780   16.8020 C.2   218  PHE218      0.2264
    188  O         29.5440  -33.4640   17.8300 O.2   218  PHE218     -0.2867
    189  CB        29.7000  -35.2010   15.5120 C.3   218  PHE218      0.0534
    190  CG        28.4970  -34.7580   14.7360 C.ar  218  PHE218     -0.0203
    191  CD1       28.2990  -35.2080   13.4330 C.ar  218  PHE218     -0.0042
    192  CD2       27.5250  -33.9500   15.3230 C.ar  218  PHE218     -0.0042
    193  CE1       27.1490  -34.8670   12.7260 C.ar  218  PHE218     -0.0003
    194  CE2       26.3680  -33.6010   14.6260 C.ar  218  PHE218     -0.0003
    195  CZ        26.1790  -34.0630   13.3220 C.ar  218  PHE218     -0.0000
    196  N         27.7330  -29.3800   16.9330 N.3   220  GLU220     -0.1245
    197  CA        27.0050  -28.2850   16.3130 C.3   220  GLU220      0.1567
    198  C         27.2440  -26.9810   17.0600 C.2   220  GLU220      0.2260
    199  O         27.3210  -26.9680   18.2890 O.2   220  GLU220     -0.2867
    200  CB        25.5150  -28.6180   16.2740 C.3   220  GLU220      0.0388
    201  CG        25.2340  -30.0180   15.7470 C.3   220  GLU220      0.1160
    202  CD        23.7560  -30.2910   15.5440 C.2   220  GLU220      0.3649
    203  OE1       22.9480  -29.8610   16.3960 O.co2 220  GLU220     -0.2457
    204  OE2       23.4060  -30.9480   14.5390 O.co2 220  GLU220     -0.2457
    205  N         17.5060  -27.4150   18.6260 N.3   231  ASP231     -0.1239
    206  CA        18.5520  -27.9230   19.5130 C.3   231  ASP231      0.1674
    207  C         19.3110  -26.7700   20.1530 C.2   231  ASP231      0.2266
    208  O         20.4880  -26.9020   20.4900 O.2   231  ASP231     -0.2867
    209  CB        19.5350  -28.7990   18.7310 C.3   231  ASP231      0.1410
    210  CG        18.8510  -29.9320   17.9960 C.2   231  ASP231      0.3668
    211  OD1       19.5570  -30.7180   17.3340 O.co2 231  ASP231     -0.2456
    212  OD2       17.6100  -30.0370   18.0780 O.co2 231  ASP231     -0.2456
@<TRIPOS>BOND
     1    73    72    2
     2    72    71    1
     3    78    79    1
     4    70    71    1
     5    71    74    1
     6    81    80    2
     7    79    80    1
     8    79    82    1
     9    20    21    2
    10    20    19    1
    11    19    18    1
    12    19    22    1
    13    74    75    1
    14    82    83    1
    15    76    75   ar
    16     9    10    1
    17    10    11    1
    18    10    13    1
    19    75    77   ar
    20    11    12    2
    21    93    92    1
    22    93    87    1
    23    22    23    1
    24    83    84    1
    25    24    25    1
    26    92    91    1
    27    13    14    1
    28    87    88    1
    29    14    15    1
    30    17    16    1
    31    84    85    2
    32    84    86   am
    33    26    25    1
    34    26    27    2
    35    25    28    1
    36    15    16    1
    37    91    88    1
    38     4     3    2
    39    88    89    1
    40    90    89    2
    41    30    29    1
    42    30    31    1
    43     3     2    1
    44    28    29    1
    45    33    34    1
    46    89    94   am
    47   110   111    1
    48   193   195   ar
    49   193   191   ar
    50    32    31    1
    51   195   194   ar
    52     2     1    1
    53     2     5    1
    54   101   102    2
    55   101   100    1
    56   191   190   ar
    57    67    66    2
    58    34    37    1
    59    34    35    1
    60   115   114    1
    61   115   116    1
    62    94    95    1
    63    37    38    1
    64   111   114    1
    65   111   112    1
    66    40    38   am
    67   113   112    2
    68    38    39    2
    69    66    65    1
    70    46    47    1
    71    46    45    1
    72   117   116    1
    73   117   118    1
    74     8     6   am
    75   204   202   ar
    76    97    96    2
    77    41    35   am
    78    41    42    1
    79     6     5    1
    80     6     7    2
    81   100    99    1
    82   100   103    1
    83   194   192   ar
    84    96    99   am
    85    96    95    1
    86   103   104    1
    87    95    98    1
    88   190   192   ar
    89   190   189    1
    90    35    36    2
    91    47    48    1
    92    45    42    1
    93   189   186    1
    94   202   201    1
    95   202   203   ar
    96    50    49    1
    97    64    65    1
    98   201   200    1
    99    42    43    1
   100    65    68    1
   101   186   185    1
   102   186   187    1
   103   104   106   ar
   104   104   105   ar
   105   106   108   ar
   106    61    60    2
   107    44    43    2
   108   200   197    1
   109   197   196    1
   110   197   198    1
   111    48    49    2
   112    43    52   am
   113    68    69    1
   114    60    59    1
   115    49    51    1
   116   187   188    2
   117   198   199    2
   118   108   109   ar
   119   105   107   ar
   120   147   148   ar
   121   147   145   ar
   122   211   210   ar
   123   148   146   ar
   124    52    53    1
   125   145   144   ar
   126   210   212   ar
   127   210   209    1
   128    59    58    1
   129    59    62    1
   130   134   133    1
   131   134   135    1
   132   109   107   ar
   133    55    54    2
   134    58    54   am
   135   133   132    1
   136    54    53    1
   137   146   144   ar
   138   205   206    1
   139    63    62    1
   140   209   206    1
   141    53    56    1
   142   137   136    1
   143   144   143    1
   144   126   125    2
   145   132   129    1
   146   206   207    1
   147   135   136    2
   148   119   120    1
   149   127   125   am
   150   136   138    1
   151   125   124    1
   152   128   129    1
   153   143   140    1
   154   207   208    2
   155    56    57    1
   156   129   130    1
   157   157   155   am
   158   139   140    1
   159   120   123    1
   160   120   121    1
   161   124   123    1
   162   140   141    1
   163   165   164    2
   164   130   131    2
   165   121   122    2
   166   156   155    2
   167   155   154    1
   168   177   178    1
   169   177   176    1
   170   169   167   ar
   171   184   183    1
   172   175   176    1
   173   175   174    1
   174   141   142    2
   175   164   163    1
   176   164   170   am
   177   183   180    1
   178   166   167    1
   179   166   163    1
   180   171   174    1
   181   171   170    1
   182   171   172    1
   183   179   172   am
   184   179   180    1
   185   167   168   ar
   186   154   153    1
   187   163   162    1
   188   172   173    2
   189   180   181    1
   190   153   150    1
   191   182   181    2
   192   158   159    1
   193   159   160    1
   194   150   149    1
   195   150   151    1
   196   151   152    2
   197   160   161    2
