@<TRIPOS>MOLECULE
tmp/2nxgA00.pdb
 149 139 0 0 0
SMALL
GASTEIGER

@<TRIPOS>ATOM
      1  N         33.0800   58.5940   25.9590 N.3    10  ASN10      -0.1240
      2  CA        33.5780   57.4340   25.2370 C.3    10  ASN10       0.1653
      3  C         34.6830   56.7470   26.0230 C.2    10  ASN10       0.2266
      4  O         34.6260   55.5440   26.2830 O.2    10  ASN10      -0.2867
      5  CB        34.1270   57.8180   23.8630 C.3    10  ASN10       0.1155
      6  CG        34.6840   56.6110   23.1100 C.2    10  ASN10       0.2627
      7  OD1       33.9320   55.7740   22.6020 O.2    10  ASN10      -0.2716
      8  ND2       36.0080   56.5030   23.0620 N.am   10  ASN10      -0.0877
      9  N         28.3000   54.7050   31.2300 N.3    40  LYS40      -0.1245
     10  CA        29.2550   54.0000   30.3900 C.3    40  LYS40       0.1561
     11  C         30.5280   54.7730   30.1180 C.2    40  LYS40       0.2260
     12  O         30.5110   55.9950   29.9630 O.2    40  LYS40      -0.2867
     13  CB        28.5970   53.6460   29.0470 C.3    40  LYS40       0.0271
     14  CG        29.4730   52.8630   28.0680 C.3    40  LYS40       0.0035
     15  CD        30.4180   53.7540   27.2680 C.3    40  LYS40       0.0206
     16  CE        31.3610   52.9190   26.3980 C.3    40  LYS40       0.1093
     17  NZ        32.3480   53.7380   25.6320 N.3    40  LYS40      -0.1314
     18  N         34.7270   53.4570   28.5590 N.3    42  SER42      -0.1217
     19  CA        35.7400   52.4370   28.3070 C.3    42  SER42       0.1889
     20  C         37.0610   52.7050   29.0170 C.2    42  SER42       0.2288
     21  O         37.6220   53.7980   28.9100 O.2    42  SER42      -0.2866
     22  CB        36.0140   52.3260   26.8020 C.3    42  SER42       0.2089
     23  OG        34.8440   51.9760   26.0850 O.3    42  SER42      -0.2183
     24  N         40.6220   51.8280   24.8200 N.3    45  LYS45      -0.1245
     25  CA        40.2330   51.8390   23.4140 C.3    45  LYS45       0.1561
     26  C         41.2870   50.9240   22.7940 C.2    45  LYS45       0.2260
     27  O         42.3370   51.3880   22.3440 O.2    45  LYS45      -0.2867
     28  CB        40.3540   53.2470   22.8190 C.3    45  LYS45       0.0271
     29  CG        39.6810   54.3540   23.6210 C.3    45  LYS45       0.0035
     30  CD        38.2170   54.0440   23.9440 C.3    45  LYS45       0.0206
     31  CE        37.3750   53.8710   22.6910 C.3    45  LYS45       0.1093
     32  NZ        35.9390   53.6130   23.0220 N.3    45  LYS45      -0.1314
     33  N         41.0940   49.1190   20.0560 N.3    47  ASN47      -0.1240
     34  CA        41.0010   48.9330   18.6150 C.3    47  ASN47       0.1653
     35  C         41.1050   50.2250   17.7990 C.2    47  ASN47       0.2266
     36  O         40.5210   50.3160   16.7130 O.2    47  ASN47      -0.2867
     37  CB        39.6840   48.2410   18.2660 C.3    47  ASN47       0.1155
     38  CG        38.4780   49.1210   18.5460 C.2    47  ASN47       0.2627
     39  OD1       37.3750   48.8500   18.0770 O.2    47  ASN47      -0.2716
     40  ND2       38.6860   50.1810   19.3240 N.am   47  ASN47      -0.0877
     41  N         33.4410   47.9340   28.4450 N.3    80  ASP80      -0.1239
     42  CA        33.7370   46.8040   27.5730 C.3    80  ASP80       0.1674
     43  C         35.0680   46.1190   27.8470 C.2    80  ASP80       0.2266
     44  O         36.0160   46.7480   28.3150 O.2    80  ASP80      -0.2867
     45  CB        33.6420   47.2390   26.0950 C.3    80  ASP80       0.1410
     46  CG        34.4650   48.4850   25.7810 C.2    80  ASP80       0.3668
     47  OD1       34.7470   49.2770   26.7060 O.co2  80  ASP80      -0.2456
     48  OD2       34.8160   48.6810   24.5960 O.co2  80  ASP80      -0.2456
     49  N         38.1680   43.3310   26.3610 N.3    82  HIS82      -0.1241
     50  CA        38.8110   43.0120   25.1030 C.3    82  HIS82       0.1621
     51  C         39.4630   41.6420   25.0550 C.2    82  HIS82       0.2264
     52  O         39.7270   41.1160   23.9790 O.2    82  HIS82      -0.2867
     53  CB        39.7930   44.1380   24.8150 C.3    82  HIS82       0.0745
     54  CG        39.1920   45.4920   25.0400 C.ar   82  HIS82       0.0817
     55  ND1       38.2590   46.0430   24.1850 N.ar   82  HIS82      -0.2268
     56  CD2       39.3090   46.3590   26.0760 C.ar   82  HIS82       0.1154
     57  CE1       37.8280   47.1880   24.6840 C.ar   82  HIS82       0.1986
     58  NE2       38.4490   47.4030   25.8310 N.ar   82  HIS82      -0.2212
     59  N         30.0940   44.8730   28.3420 N.3    98  GLN98      -0.1245
     60  CA        29.9370   45.1530   26.9220 C.3    98  GLN98       0.1566
     61  C         30.9710   44.4410   26.0670 C.2    98  GLN98       0.2260
     62  O         32.1560   44.4240   26.4050 O.2    98  GLN98      -0.2867
     63  CB        30.0270   46.6660   26.6820 C.3    98  GLN98       0.0367
     64  CG        29.8890   47.0920   25.2230 C.3    98  GLN98       0.0905
     65  CD        29.9010   48.6050   25.0440 C.2    98  GLN98       0.2608
     66  OE1       30.6350   49.1330   24.2090 O.2    98  GLN98      -0.2717
     67  NE2       29.0800   49.3060   25.8220 N.am   98  GLN98      -0.0878
     68  N         32.7830   44.4170   22.4250 N.3   100  PRO100     -0.2102
     69  CA        33.0570   45.2230   21.2290 C.3   100  PRO100      0.1504
     70  C         32.5260   44.5710   19.9440 C.2   100  PRO100      0.2576
     71  O         32.4570   43.3390   19.8350 O.2   100  PRO100     -0.2718
     72  CB        34.5810   45.3250   21.2260 C.3   100  PRO100      0.0282
     73  CG        34.9330   45.2710   22.6890 C.3   100  PRO100      0.0208
     74  CD        34.0180   44.1850   23.1990 C.3   100  PRO100      0.0893
     75  N         32.1800   45.4040   18.9670 N.am  101  ALA101     -0.1966
     76  CA        31.6460   44.9290   17.6950 C.3   101  ALA101      0.1728
     77  C         32.5630   43.9580   16.9400 C.2   101  ALA101      0.2616
     78  O         32.1060   42.9250   16.4500 O.2   101  ALA101     -0.2715
     79  CB        31.3230   46.1170   16.8040 C.3   101  ALA101      0.0334
     80  N         33.8440   44.2900   16.8230 N.am  102  PHE102     -0.1974
     81  CA        34.7570   43.4110   16.1010 C.3   102  PHE102      0.1639
     82  C         34.8900   42.0600   16.7920 C.2   102  PHE102      0.2290
     83  O         35.2140   41.0590   16.1530 O.2   102  PHE102     -0.2864
     84  CB        36.1590   44.0350   15.9800 C.3   102  PHE102      0.0560
     85  CG        36.2020   45.3290   15.1980 C.ar  102  PHE102     -0.0200
     86  CD1       35.2720   45.5930   14.1950 C.ar  102  PHE102     -0.0042
     87  CD2       37.2050   46.2680   15.4470 C.ar  102  PHE102     -0.0042
     88  CE1       35.3360   46.7740   13.4450 C.ar  102  PHE102     -0.0003
     89  CE2       37.2800   47.4500   14.7070 C.ar  102  PHE102     -0.0003
     90  CZ        36.3400   47.7020   13.7000 C.ar  102  PHE102     -0.0000
     91  N         27.7780   44.3670   21.0270 N.3   123  LYS123     -0.1245
     92  CA        27.6440   45.3030   19.9190 C.3   123  LYS123      0.1561
     93  C         27.6270   44.4230   18.6770 C.2   123  LYS123      0.2260
     94  O         28.5340   43.6030   18.4990 O.2   123  LYS123     -0.2867
     95  CB        28.8530   46.2400   19.8660 C.3   123  LYS123      0.0271
     96  CG        28.9200   47.2940   20.9730 C.3   123  LYS123      0.0035
     97  CD        27.7510   48.2720   20.8680 C.3   123  LYS123      0.0206
     98  CE        28.0730   49.6130   21.5020 C.3   123  LYS123      0.1093
     99  NZ        29.1320   50.3160   20.7390 N.3   123  LYS123     -0.1314
    100  N         29.8400   44.9820   12.4730 N.3   126  GLN126     -0.1245
    101  CA        29.5050   45.6520   11.2120 C.3   126  GLN126      0.1566
    102  C         29.4610   44.6760   10.0360 C.2   126  GLN126      0.2260
    103  O         28.9860   45.0060    8.9460 O.2   126  GLN126     -0.2867
    104  CB        30.5240   46.7630   10.9270 C.3   126  GLN126      0.0367
    105  CG        30.6170   47.8090   12.0280 C.3   126  GLN126      0.0905
    106  CD        31.6210   47.4630   13.1110 C.2   126  GLN126      0.2608
    107  OE1       31.7360   46.3080   13.5300 O.2   126  GLN126     -0.2717
    108  NE2       32.3490   48.4770   13.5860 N.am  126  GLN126     -0.0878
    109  N         24.6780   48.9960   15.8120 N.3   153  ARG153     -0.1245
    110  CA        25.6080   50.1130   15.6550 C.3   153  ARG153      0.1563
    111  C         26.0670   50.3270   14.2140 C.2   153  ARG153      0.2260
    112  O         27.1660   50.8370   13.9640 O.2   153  ARG153     -0.2867
    113  CB        26.8120   49.9440   16.5970 C.3   153  ARG153      0.0307
    114  CG        27.5830   48.6380   16.4120 C.3   153  ARG153      0.0489
    115  CD        28.7410   48.8220   15.4590 C.3   153  ARG153      0.2205
    116  NE        29.8560   49.5410   16.0790 N.pl3 153  ARG153     -0.0865
    117  CZ        30.4000   50.6500   15.5850 C.cat 153  ARG153      0.5346
    118  NH1       29.9250   51.1770   14.4640 N.pl3 153  ARG153      0.1354
    119  NH2       31.4340   51.2200   16.1960 N.pl3 153  ARG153      0.1354
    120  N         27.6590   55.7700   17.3220 N.3   184  HIS184     -0.1241
    121  CA        28.5240   55.0430   16.3990 C.3   184  HIS184      0.1621
    122  C         27.8770   54.6420   15.0780 C.2   184  HIS184      0.2264
    123  O         28.5750   54.3730   14.0970 O.2   184  HIS184     -0.2867
    124  CB        29.1200   53.8210   17.0950 C.3   184  HIS184      0.0745
    125  CG        29.9990   54.1760   18.2510 C.ar  184  HIS184      0.0817
    126  ND1       29.6070   54.0180   19.5640 N.ar  184  HIS184     -0.2268
    127  CD2       31.2200   54.7610   18.2900 C.ar  184  HIS184      0.1154
    128  CE1       30.5480   54.4930   20.3610 C.ar  184  HIS184      0.1986
    129  NE2       31.5370   54.9500   19.6130 N.ar  184  HIS184     -0.2212
    130  N         21.8330   53.8990   23.3360 N.3   219  PHE219     -0.1241
    131  CA        23.1840   54.0240   23.8350 C.3   219  PHE219      0.1605
    132  C         23.7230   55.2960   23.1990 C.2   219  PHE219      0.2264
    133  O         23.6640   55.4560   21.9800 O.2   219  PHE219     -0.2867
    134  CB        23.9540   52.7690   23.3780 C.3   219  PHE219      0.0534
    135  CG        25.4310   52.7990   23.6400 C.ar  219  PHE219     -0.0203
    136  CD1       26.2650   53.6630   22.9350 C.ar  219  PHE219     -0.0042
    137  CD2       26.0010   51.9130   24.5570 C.ar  219  PHE219     -0.0042
    138  CE1       27.6580   53.6480   23.1340 C.ar  219  PHE219     -0.0003
    139  CE2       27.3880   51.8850   24.7680 C.ar  219  PHE219     -0.0003
    140  CZ        28.2190   52.7560   24.0530 C.ar  219  PHE219     -0.0000
    141  N         26.9810   58.3290   23.5350 N.3   221  GLU221     -0.1245
    142  CA        28.1520   58.9120   24.1560 C.3   221  GLU221      0.1567
    143  C         27.9870   60.4210   24.2280 C.2   221  GLU221      0.2260
    144  O         27.4230   61.0490   23.3300 O.2   221  GLU221     -0.2867
    145  CB        29.4060   58.5420   23.3650 C.3   221  GLU221      0.0388
    146  CG        29.5110   57.0480   23.1240 C.3   221  GLU221      0.1160
    147  CD        30.9200   56.5910   22.8090 C.2   221  GLU221      0.3649
    148  OE1       31.5390   57.1540   21.8820 O.co2 221  GLU221     -0.2457
    149  OE2       31.4010   55.6580   23.4890 O.co2 221  GLU221     -0.2457
@<TRIPOS>BOND
     1   103   102    2
     2   102   101    1
     3   104   101    1
     4   104   105    1
     5   101   100    1
     6   105   106    1
     7   106   107    2
     8   106   108   am
     9    88    90   ar
    10    88    86   ar
    11    90    89   ar
    12   112   111    2
    13   123   122    2
    14    86    85   ar
    15   111   110    1
    16   118   117    1
    17    89    87   ar
    18   122   121    1
    19    85    87   ar
    20    85    84    1
    21   115   116    1
    22   115   114    1
    23   117   116    2
    24   117   119    1
    25   110   109    1
    26   110   113    1
    27    84    81    1
    28    81    82    1
    29    81    80    1
    30    83    82    2
    31   121   124    1
    32   121   120    1
    33   114   113    1
    34    78    77    2
    35    36    35    2
    36    79    76    1
    37    80    77   am
    38    77    76    1
    39   124   125    1
    40    76    75    1
    41    35    34    1
    42    39    38    2
    43   125   127   ar
    44   125   126   ar
    45    37    38    1
    46    37    34    1
    47   127   129   ar
    48    94    93    2
    49    38    40   am
    50    34    33    1
    51    93    92    1
    52    75    70   am
    53   126   128   ar
    54   129   128   ar
    55    71    70    2
    56    95    92    1
    57    95    96    1
    58    92    91    1
    59    70    69    1
    60    99    98    1
    61    97    96    1
    62    97    98    1
    63    72    69    1
    64    72    73    1
    65    69    68    1
    66   148   147   ar
    67   133   132    2
    68    27    26    2
    69    68    74    1
    70     7     6    2
    71    73    74    1
    72    31    32    1
    73    31    30    1
    74    26    25    1
    75   147   146    1
    76   147   149   ar
    77    28    25    1
    78    28    29    1
    79   136   138   ar
    80   136   135   ar
    81     8     6   am
    82     6     5    1
    83   146   145    1
    84   138   140   ar
    85   132   131    1
    86   144   143    2
    87   130   131    1
    88   145   142    1
    89   134   135    1
    90   134   131    1
    91    25    24    1
    92   141   142    1
    93    29    30    1
    94   135   137   ar
    95     5     2    1
    96    52    51    2
    97   140   139   ar
    98   142   143    1
    99    55    57   ar
   100    55    54   ar
   101    66    65    2
   102   137   139   ar
   103    48    46   ar
   104    57    58   ar
   105    53    54    1
   106    53    50    1
   107    54    56   ar
   108    65    64    1
   109    65    67   am
   110    51    50    1
   111    50    49    1
   112    64    63    1
   113     2     1    1
   114     2     3    1
   115    17    16    1
   116    46    45    1
   117    46    47   ar
   118    58    56   ar
   119     3     4    2
   120    61    62    2
   121    61    60    1
   122    23    22    1
   123    45    42    1
   124    16    15    1
   125    63    60    1
   126    22    19    1
   127    60    59    1
   128    15    14    1
   129    42    43    1
   130    42    41    1
   131    43    44    2
   132    14    13    1
   133    19    18    1
   134    19    20    1
   135    21    20    2
   136    13    10    1
   137    12    11    2
   138    11    10    1
   139    10     9    1
