@<TRIPOS>MOLECULE
tmp/2nxgA01.pdb
 120 112 0 0 0
SMALL
GASTEIGER

@<TRIPOS>ATOM
      1  N         33.0800   58.5940   25.9590 N.3    10  ASN10      -0.1240
      2  CA        33.5780   57.4340   25.2370 C.3    10  ASN10       0.1653
      3  C         34.6830   56.7470   26.0230 C.2    10  ASN10       0.2266
      4  O         34.6260   55.5440   26.2830 O.2    10  ASN10      -0.2867
      5  CB        34.1270   57.8180   23.8630 C.3    10  ASN10       0.1155
      6  CG        34.6840   56.6110   23.1100 C.2    10  ASN10       0.2627
      7  OD1       33.9320   55.7740   22.6020 O.2    10  ASN10      -0.2716
      8  ND2       36.0080   56.5030   23.0620 N.am   10  ASN10      -0.0877
      9  N         40.6220   51.8280   24.8200 N.3    45  LYS45      -0.1245
     10  CA        40.2330   51.8390   23.4140 C.3    45  LYS45       0.1561
     11  C         41.2870   50.9240   22.7940 C.2    45  LYS45       0.2260
     12  O         42.3370   51.3880   22.3440 O.2    45  LYS45      -0.2867
     13  CB        40.3540   53.2470   22.8190 C.3    45  LYS45       0.0271
     14  CG        39.6810   54.3540   23.6210 C.3    45  LYS45       0.0035
     15  CD        38.2170   54.0440   23.9440 C.3    45  LYS45       0.0206
     16  CE        37.3750   53.8710   22.6910 C.3    45  LYS45       0.1093
     17  NZ        35.9390   53.6130   23.0220 N.3    45  LYS45      -0.1314
     18  N         41.0940   49.1190   20.0560 N.3    47  ASN47      -0.1225
     19  CA        41.0010   48.9330   18.6150 C.3    47  ASN47       0.1785
     20  C         41.1050   50.2250   17.7990 C.2    47  ASN47       0.2597
     21  O         40.5210   50.3160   16.7130 O.2    47  ASN47      -0.2718
     22  CB        39.6840   48.2410   18.2660 C.3    47  ASN47       0.1169
     23  CG        38.4780   49.1210   18.5460 C.2    47  ASN47       0.2627
     24  OD1       37.3750   48.8500   18.0770 O.2    47  ASN47      -0.2716
     25  ND2       38.6860   50.1810   19.3240 N.am   47  ASN47      -0.0877
     26  N         41.8280   51.2210   18.3080 N.am   48  ARG48      -0.1966
     27  CA        41.9850   52.4730   17.5690 C.3    48  ARG48       0.1729
     28  C         42.6210   52.1660   16.2040 C.2    48  ARG48       0.2616
     29  O         43.2890   51.1460   16.0310 O.2    48  ARG48      -0.2715
     30  CB        42.8900   53.4590   18.3300 C.3    48  ARG48       0.0348
     31  CG        42.4070   53.8970   19.7200 C.3    48  ARG48       0.0492
     32  CD        41.0310   54.5390   19.6770 C.3    48  ARG48       0.2205
     33  NE        40.9620   55.6990   18.7890 N.pl3  48  ARG48      -0.0865
     34  CZ        41.1250   56.9620   19.1770 C.cat  48  ARG48       0.5346
     35  NH1       41.3750   57.2470   20.4510 N.pl3  48  ARG48       0.1354
     36  NH2       41.0180   57.9430   18.2900 N.pl3  48  ARG48       0.1354
     37  N         42.4120   53.0420   15.2310 N.am   49  SER49      -0.1950
     38  CA        43.0040   52.8320   13.9150 C.3    49  SER49       0.1924
     39  C         44.5150   53.0290   13.9930 C.2    49  SER49       0.2314
     40  O         45.2840   52.2250   13.4640 O.2    49  SER49      -0.2863
     41  CB        42.4260   53.8210   12.8970 C.3    49  SER49       0.2116
     42  OG        41.0310   53.6410   12.7450 O.3    49  SER49      -0.2180
     43  N         46.8710   57.0000   18.7180 N.3    53  SER53      -0.1217
     44  CA        45.6740   57.5530   19.3400 C.3    53  SER53       0.1889
     45  C         45.5400   57.1840   20.8120 C.2    53  SER53       0.2288
     46  O         46.1540   56.2300   21.2870 O.2    53  SER53      -0.2866
     47  CB        44.4290   57.0970   18.5760 C.3    53  SER53       0.2089
     48  OG        44.4620   57.5670   17.2380 O.3    53  SER53      -0.2183
     49  N         33.8440   44.2900   16.8230 N.3   102  PHE102     -0.1241
     50  CA        34.7570   43.4110   16.1010 C.3   102  PHE102      0.1605
     51  C         34.8900   42.0600   16.7920 C.2   102  PHE102      0.2264
     52  O         35.2140   41.0590   16.1530 O.2   102  PHE102     -0.2867
     53  CB        36.1590   44.0350   15.9800 C.3   102  PHE102      0.0534
     54  CG        36.2020   45.3290   15.1980 C.ar  102  PHE102     -0.0203
     55  CD1       35.2720   45.5930   14.1950 C.ar  102  PHE102     -0.0042
     56  CD2       37.2050   46.2680   15.4470 C.ar  102  PHE102     -0.0042
     57  CE1       35.3360   46.7740   13.4450 C.ar  102  PHE102     -0.0003
     58  CE2       37.2800   47.4500   14.7070 C.ar  102  PHE102     -0.0003
     59  CZ        36.3400   47.7020   13.7000 C.ar  102  PHE102     -0.0000
     60  N         24.6780   48.9960   15.8120 N.3   153  ARG153     -0.1245
     61  CA        25.6080   50.1130   15.6550 C.3   153  ARG153      0.1563
     62  C         26.0670   50.3270   14.2140 C.2   153  ARG153      0.2260
     63  O         27.1660   50.8370   13.9640 O.2   153  ARG153     -0.2867
     64  CB        26.8120   49.9440   16.5970 C.3   153  ARG153      0.0307
     65  CG        27.5830   48.6380   16.4120 C.3   153  ARG153      0.0489
     66  CD        28.7410   48.8220   15.4590 C.3   153  ARG153      0.2205
     67  NE        29.8560   49.5410   16.0790 N.pl3 153  ARG153     -0.0865
     68  CZ        30.4000   50.6500   15.5850 C.cat 153  ARG153      0.5346
     69  NH1       29.9250   51.1770   14.4640 N.pl3 153  ARG153      0.1354
     70  NH2       31.4340   51.2200   16.1960 N.pl3 153  ARG153      0.1354
     71  N         27.6590   55.7700   17.3220 N.3   184  HIS184     -0.1241
     72  CA        28.5240   55.0430   16.3990 C.3   184  HIS184      0.1621
     73  C         27.8770   54.6420   15.0780 C.2   184  HIS184      0.2264
     74  O         28.5750   54.3730   14.0970 O.2   184  HIS184     -0.2867
     75  CB        29.1200   53.8210   17.0950 C.3   184  HIS184      0.0745
     76  CG        29.9990   54.1760   18.2510 C.ar  184  HIS184      0.0817
     77  ND1       29.6070   54.0180   19.5640 N.ar  184  HIS184     -0.2268
     78  CD2       31.2200   54.7610   18.2900 C.ar  184  HIS184      0.1154
     79  CE1       30.5480   54.4930   20.3610 C.ar  184  HIS184      0.1986
     80  NE2       31.5370   54.9500   19.6130 N.ar  184  HIS184     -0.2212
     81  N         28.9850   56.9990   12.5470 N.3   187  GLN187     -0.1245
     82  CA        30.4380   57.1270   12.4990 C.3   187  GLN187      0.1566
     83  C         30.9590   56.7250   11.1130 C.2   187  GLN187      0.2260
     84  O         30.3820   55.8640   10.4500 O.2   187  GLN187     -0.2867
     85  CB        31.0670   56.2170   13.5610 C.3   187  GLN187      0.0367
     86  CG        32.5800   56.2720   13.6260 C.3   187  GLN187      0.0905
     87  CD        33.1790   55.0740   14.3450 C.2   187  GLN187      0.2608
     88  OE1       34.3840   55.0370   14.6120 O.2   187  GLN187     -0.2717
     89  NE2       32.3440   54.0800   14.6520 N.am  187  GLN187     -0.0878
     90  N         43.9880   58.6020    9.9870 N.3   194  ASP194     -0.1225
     91  CA        44.5220   57.9980   11.2030 C.3   194  ASP194      0.1805
     92  C         43.4450   57.9430   12.2910 C.2   194  ASP194      0.2598
     93  O         43.6860   57.4490   13.3940 O.2   194  ASP194     -0.2718
     94  CB        45.7290   58.8020   11.6990 C.3   194  ASP194      0.1424
     95  CG        45.3590   60.2190   12.1120 C.2   194  ASP194      0.3668
     96  OD1       44.6980   60.9210   11.3150 O.co2 194  ASP194     -0.2456
     97  OD2       45.7360   60.6330   13.2320 O.co2 194  ASP194     -0.2456
     98  N         42.2620   58.4610   11.9660 N.am  195  LYS195     -0.1966
     99  CA        41.1220   58.4820   12.8810 C.3   195  LYS195      0.1728
    100  C         39.8270   58.3090   12.0900 C.2   195  LYS195      0.2616
    101  O         39.8090   58.4690   10.8680 O.2   195  LYS195     -0.2715
    102  CB        41.0590   59.8090   13.6450 C.3   195  LYS195      0.0311
    103  CG        42.2230   60.0710   14.5780 C.3   195  LYS195      0.0038
    104  CD        42.0590   61.4110   15.2790 C.3   195  LYS195      0.0206
    105  CE        43.2420   61.7170   16.1870 C.3   195  LYS195      0.1093
    106  NZ        43.3960   60.7130   17.2750 N.3   195  LYS195     -0.1314
    107  N         38.7450   57.9870   12.7920 N.am  196  SER196     -0.1950
    108  CA        37.4480   57.8050   12.1490 C.3   196  SER196      0.1924
    109  C         36.6590   59.1120   12.1550 C.2   196  SER196      0.2314
    110  O         36.8700   59.9780   13.0090 O.2   196  SER196     -0.2863
    111  CB        36.6370   56.7150   12.8640 C.3   196  SER196      0.2116
    112  OG        37.2260   55.4320   12.7140 O.3   196  SER196     -0.2180
    113  N         36.4520   59.5340   19.3290 N.3   232  ASP232     -0.1239
    114  CA        35.0660   59.6560   18.8830 C.3   232  ASP232      0.1674
    115  C         34.5550   61.0920   18.9740 C.2   232  ASP232      0.2266
    116  O         33.3460   61.3210   19.0050 O.2   232  ASP232     -0.2867
    117  CB        34.1550   58.7430   19.7170 C.3   232  ASP232      0.1410
    118  CG        34.5330   57.2720   19.6070 C.2   232  ASP232      0.3668
    119  OD1       35.6960   56.9300   19.9080 O.co2 232  ASP232     -0.2456
    120  OD2       33.6660   56.4550   19.2270 O.co2 232  ASP232     -0.2456
@<TRIPOS>BOND
     1    90    91    1
     2    84    83    2
     3   101   100    2
     4    83    82    1
     5    91    94    1
     6    91    92    1
     7    96    95   ar
     8    94    95    1
     9    98    92   am
    10    98    99    1
    11   100   107   am
    12   100    99    1
    13    95    97   ar
    14   108   109    1
    15   108   107    1
    16   108   111    1
    17   109   110    2
    18    92    93    2
    19    82    81    1
    20    82    85    1
    21   112   111    1
    22    42    41    1
    23    99   102    1
    24    41    38    1
    25    57    59   ar
    26    57    55   ar
    27    40    39    2
    28    85    86    1
    29    86    87    1
    30   102   103    1
    31    59    58   ar
    32    38    39    1
    33    38    37    1
    34    63    62    2
    35    74    73    2
    36    55    54   ar
    37    62    61    1
    38    87    88    2
    39    87    89   am
    40    69    68    1
    41   103   104    1
    42    58    56   ar
    43    73    72    1
    44    54    56   ar
    45    54    53    1
    46    37    28   am
    47   104   105    1
    48    66    67    1
    49    66    65    1
    50    68    67    2
    51    68    70    1
    52    61    60    1
    53    61    64    1
    54    53    50    1
    55    29    28    2
    56    50    51    1
    57    50    49    1
    58    52    51    2
    59   105   106    1
    60    28    27    1
    61    72    75    1
    62    72    71    1
    63    65    64    1
    64    21    20    2
    65    75    76    1
    66    48    47    1
    67    27    26    1
    68    27    30    1
    69    20    26   am
    70    20    19    1
    71    24    23    2
    72    76    78   ar
    73    76    77   ar
    74    22    23    1
    75    22    19    1
    76    36    34    1
    77    78    80   ar
    78    30    31    1
    79    23    25   am
    80    47    44    1
    81    19    18    1
    82    43    44    1
    83    33    34    2
    84    33    32    1
    85   114   115    1
    86   114   113    1
    87   114   117    1
    88   115   116    2
    89    34    35    1
    90   120   118   ar
    91    44    45    1
    92    77    79   ar
    93   118   117    1
    94   118   119   ar
    95    80    79   ar
    96    32    31    1
    97    45    46    2
    98    12    11    2
    99     7     6    2
   100    16    17    1
   101    16    15    1
   102    11    10    1
   103    13    10    1
   104    13    14    1
   105     8     6   am
   106     6     5    1
   107    10     9    1
   108    14    15    1
   109     5     2    1
   110     2     1    1
   111     2     3    1
   112     3     4    2
