@<TRIPOS>MOLECULE
tmp/2nxiH01.pdb
 88 82 0 0 0
SMALL
GASTEIGER

@<TRIPOS>ATOM
      1  N         53.5120  -79.5610   60.7200 N.3    44  LYS44      -0.1245
      2  CA        53.2800  -79.1830   62.1010 C.3    44  LYS44       0.1561
      3  C         51.7670  -78.9350   62.0820 C.2    44  LYS44       0.2260
      4  O         51.2890  -77.8260   61.8450 O.2    44  LYS44      -0.2867
      5  CB        54.0630  -77.9200   62.4530 C.3    44  LYS44       0.0271
      6  CG        55.5570  -78.0190   62.1350 C.3    44  LYS44       0.0035
      7  CD        56.2140  -79.2690   62.7280 C.3    44  LYS44       0.0206
      8  CE        56.0280  -79.3360   64.2360 C.3    44  LYS44       0.1093
      9  NZ        56.7730  -80.4630   64.8480 N.3    44  LYS44      -0.1314
     10  N         49.7290  -79.0970   64.5150 N.3    46  ASN46      -0.1225
     11  CA        49.1960  -78.6050   65.7770 C.3    46  ASN46       0.1785
     12  C         49.7970  -77.2890   66.2950 C.2    46  ASN46       0.2597
     13  O         49.8580  -77.0770   67.5070 O.2    46  ASN46      -0.2718
     14  CB        49.3700  -79.6900   66.8350 C.3    46  ASN46       0.1169
     15  CG        50.8110  -79.9720   67.1110 C.2    46  ASN46       0.2627
     16  OD1       51.6200  -79.9850   66.1870 O.2    46  ASN46      -0.2716
     17  ND2       51.1550  -80.1980   68.3780 N.am   46  ASN46      -0.0877
     18  N         50.2390  -76.4060   65.4020 N.am   47  ARG47      -0.1966
     19  CA        50.8040  -75.1240   65.8490 C.3    47  ARG47       0.1729
     20  C         49.7510  -74.3380   66.6490 C.2    47  ARG47       0.2616
     21  O         48.5490  -74.4690   66.4100 O.2    47  ARG47      -0.2715
     22  CB        51.2660  -74.2680   64.6550 C.3    47  ARG47       0.0348
     23  CG        52.3640  -74.8670   63.7530 C.3    47  ARG47       0.0492
     24  CD        53.5890  -75.3940   64.5120 C.3    47  ARG47       0.2205
     25  NE        54.3530  -74.3740   65.2410 N.pl3  47  ARG47      -0.0865
     26  CZ        55.2970  -73.5940   64.7150 C.cat  47  ARG47       0.5346
     27  NH1       55.6240  -73.6850   63.4280 N.pl3  47  ARG47       0.1354
     28  NH2       55.9430  -72.7350   65.4910 N.pl3  47  ARG47       0.1354
     29  N         50.2010  -73.5290   67.6020 N.am   48  SER48      -0.1950
     30  CA        49.2820  -72.7260   68.4100 C.3    48  SER48       0.1924
     31  C         48.5970  -71.6680   67.5410 C.2    48  SER48       0.2314
     32  O         47.4000  -71.4080   67.6690 O.2    48  SER48      -0.2863
     33  CB        50.0330  -72.0200   69.5480 C.3    48  SER48       0.2116
     34  OG        50.4900  -72.9260   70.5390 O.3    48  SER48      -0.2180
     35  N         52.0620  -69.6850   62.2880 N.3    52  SER52      -0.1217
     36  CA        53.3110  -70.4390   62.3490 C.3    52  SER52       0.1889
     37  C         53.5380  -71.3470   61.1500 C.2    52  SER52       0.2288
     38  O         52.5860  -71.7540   60.4770 O.2    52  SER52      -0.2866
     39  CB        53.3610  -71.2770   63.6330 C.3    52  SER52       0.2089
     40  OG        53.4870  -70.4630   64.7820 O.3    52  SER52      -0.2183
     41  N         61.1800  -81.4780   73.8160 N.3   183  HIS183     -0.1241
     42  CA        59.8060  -81.0620   74.0970 C.3   183  HIS183      0.1621
     43  C         59.4900  -81.0220   75.5950 C.2   183  HIS183      0.2264
     44  O         58.5390  -80.3610   76.0130 O.2   183  HIS183     -0.2867
     45  CB        58.8070  -81.9780   73.3920 C.3   183  HIS183      0.0745
     46  CG        58.7610  -81.7810   71.9110 C.ar  183  HIS183      0.0817
     47  ND1       59.5630  -82.4830   71.0400 N.ar  183  HIS183     -0.2268
     48  CD2       58.0470  -80.9180   71.1490 C.ar  183  HIS183      0.1154
     49  CE1       59.3490  -82.0620   69.8090 C.ar  183  HIS183      0.1986
     50  NE2       58.4340  -81.1120   69.8470 N.ar  183  HIS183     -0.2212
     51  N         60.2240  -77.3700   76.9100 N.3   186  GLN186     -0.1245
     52  CA        59.5550  -76.2730   76.2250 C.3   186  GLN186      0.1566
     53  C         58.4120  -75.7630   77.1040 C.2   186  GLN186      0.2260
     54  O         57.8910  -76.4830   77.9560 O.2   186  GLN186     -0.2867
     55  CB        58.9960  -76.7390   74.8730 C.3   186  GLN186      0.0367
     56  CG        57.6620  -77.4850   74.9830 C.3   186  GLN186      0.0905
     57  CD        57.1380  -77.9910   73.6450 C.2   186  GLN186      0.2608
     58  OE1       57.3270  -77.3510   72.6010 O.2   186  GLN186     -0.2717
     59  NE2       56.4530  -79.1330   73.6730 N.am  186  GLN186     -0.0878
     60  N         52.7710  -72.4670   74.8830 N.3   189  GLY189     -0.1225
     61  CA        52.0630  -71.1980   74.9070 C.3   189  GLY189      0.1811
     62  C         52.8740  -70.0170   75.4160 C.2   189  GLY189      0.2280
     63  O         52.3150  -68.9610   75.7250 O.2   189  GLY189     -0.2866
     64  N         60.1670  -73.7760   64.1430 N.3   224  SER224     -0.1202
     65  CA        59.3770  -74.4310   65.1790 C.3   224  SER224      0.2020
     66  C         60.3150  -74.8040   66.3230 C.2   224  SER224      0.2619
     67  O         61.4850  -75.1130   66.0860 O.2   224  SER224     -0.2717
     68  CB        58.6980  -75.6820   64.6110 C.3   224  SER224      0.2103
     69  OG        57.7410  -76.2000   65.5280 O.3   224  SER224     -0.2182
     70  N         59.8040  -74.7770   67.5530 N.am  225  ASP225     -0.1959
     71  CA        60.6080  -75.0830   68.7360 C.3   225  ASP225      0.1840
     72  C         61.9420  -74.3720   68.6170 C.2   225  ASP225      0.2622
     73  O         62.9890  -74.9380   68.9220 O.2   225  ASP225     -0.2715
     74  CB        60.8470  -76.5900   68.8610 C.3   225  ASP225      0.1450
     75  CG        59.6430  -77.3300   69.4100 C.2   225  ASP225      0.3671
     76  OD1       59.2080  -77.0060   70.5410 O.co2 225  ASP225     -0.2456
     77  OD2       59.1320  -78.2340   68.7140 O.co2 225  ASP225     -0.2456
     78  N         61.8980  -73.1270   68.1630 N.am  226  ALA226     -0.1963
     79  CA        63.1060  -72.3400   67.9720 C.3   226  ALA226      0.1728
     80  C         63.9620  -72.2850   69.2230 C.2   226  ALA226      0.2616
     81  O         65.1810  -72.4970   69.1710 O.2   226  ALA226     -0.2715
     82  CB        62.7420  -70.9300   67.5310 C.3   226  ALA226      0.0334
     83  N         63.3170  -72.0210   70.3510 N.am  227  SER227     -0.1950
     84  CA        64.0350  -71.9010   71.6040 C.3   227  SER227      0.1924
     85  C         64.5650  -73.1830   72.2370 C.2   227  SER227      0.2314
     86  O         65.3950  -73.1070   73.1410 O.2   227  SER227     -0.2863
     87  CB        63.1810  -71.1190   72.6160 C.3   227  SER227      0.2116
     88  OG        61.8350  -71.5550   72.6200 O.3   227  SER227     -0.2180
@<TRIPOS>BOND
     1    38    37    2
     2     1     2    1
     3    37    36    1
     4     4     3    2
     5     3     2    1
     6     2     5    1
     7     6     5    1
     8     6     7    1
     9    35    36    1
    10    36    39    1
    11     7     8    1
    12    27    26    1
    13    39    40    1
    14    23    24    1
    15    23    22    1
    16    64    65    1
    17     8     9    1
    18    24    25    1
    19    10    11    1
    20    68    65    1
    21    68    69    1
    22    22    19    1
    23    26    25    2
    24    26    28    1
    25    65    66    1
    26    18    19    1
    27    18    12   am
    28    11    12    1
    29    11    14    1
    30    19    20    1
    31    67    66    2
    32    16    15    2
    33    12    13    2
    34    66    70   am
    35    21    20    2
    36    20    29   am
    37    14    15    1
    38    15    17   am
    39    82    79    1
    40    31    32    2
    41    31    30    1
    42    70    71    1
    43    29    30    1
    44    79    78    1
    45    79    80    1
    46    78    72   am
    47    30    33    1
    48    72    71    1
    49    72    73    2
    50    77    75   ar
    51    71    74    1
    52    74    75    1
    53    81    80    2
    54    80    83   am
    55    75    76   ar
    56    33    34    1
    57    49    50   ar
    58    49    47   ar
    59    50    48   ar
    60    83    84    1
    61    47    46   ar
    62    48    46   ar
    63    84    85    1
    64    84    87    1
    65    46    45    1
    66    85    86    2
    67    58    57    2
    68    87    88    1
    69    45    42    1
    70    57    59   am
    71    57    56    1
    72    41    42    1
    73    42    43    1
    74    55    56    1
    75    55    52    1
    76    60    61    1
    77    61    62    1
    78    62    63    2
    79    43    44    2
    80    52    51    1
    81    52    53    1
    82    53    54    2
