@<TRIPOS>MOLECULE
tmp/2nxmB00.pdb
 140 133 0 0 0
SMALL
GASTEIGER

@<TRIPOS>ATOM
      1  N          6.0540   12.0920   15.2430 N.3     8  ARG8       -0.1245
      2  CA         6.7950   10.8980   15.5850 C.3     8  ARG8        0.1563
      3  C          7.8380   11.2500   16.6250 C.2     8  ARG8        0.2260
      4  O          8.6430   12.1500   16.3780 O.2     8  ARG8       -0.2867
      5  CB         7.4910   10.3450   14.3460 C.3     8  ARG8        0.0307
      6  CG         6.5380    9.9320   13.2730 C.3     8  ARG8        0.0489
      7  CD         7.1910    8.9550   12.3100 C.3     8  ARG8        0.2205
      8  NE         6.2150    8.5520   11.3020 N.pl3   8  ARG8       -0.0865
      9  CZ         6.5000    7.8350   10.2240 C.cat   8  ARG8        0.5346
     10  NH1        7.7460    7.4360   10.0090 N.pl3   8  ARG8        0.1354
     11  NH2        5.5390    7.5330    9.3560 N.pl3   8  ARG8        0.1354
     12  N         13.1580    6.1670   16.7820 N.3    23  LEU23      -0.1245
     13  CA        11.7790    6.3140   17.2240 C.3    23  LEU23       0.1561
     14  C         11.5620    5.6350   18.5730 C.2    23  LEU23       0.2260
     15  O         11.9090    4.4630   18.7620 O.2    23  LEU23      -0.2867
     16  CB        10.8650    5.6900   16.1730 C.3    23  LEU23       0.0270
     17  CG         9.3520    5.8610   16.1420 C.3    23  LEU23       0.0019
     18  CD1        8.9710    7.3170   16.2230 C.3    23  LEU23       0.0001
     19  CD2        8.8840    5.2780   14.8220 C.3    23  LEU23       0.0001
     20  N          9.3750    3.6530   20.6980 N.3    25  ASN25      -0.1240
     21  CA         8.3000    2.8410   20.1500 C.3    25  ASN25       0.1653
     22  C          7.7510    1.9100   21.2150 C.2    25  ASN25       0.2266
     23  O          8.3410    0.8540   21.4580 O.2    25  ASN25      -0.2867
     24  CB         8.7880    2.0730   18.9130 C.3    25  ASN25       0.1155
     25  CG         7.6740    1.3590   18.1850 C.2    25  ASN25       0.2627
     26  OD1        6.6230    1.0460   18.7590 O.2    25  ASN25      -0.2716
     27  ND2        7.8900    1.1070   16.9000 N.am   25  ASN25      -0.0877
     28  N          5.2160    0.2160   20.9460 N.3    27  GLY27      -0.1210
     29  CA         4.6180   -0.9130   20.2360 C.3    27  GLY27       0.1956
     30  C          5.6060   -2.0070   19.8520 C.2    27  GLY27       0.2612
     31  O          5.2330   -3.0300   19.2600 O.2    27  GLY27      -0.2717
     32  N          6.8720   -1.7830   20.1820 N.am   28  ALA28      -0.1965
     33  CA         7.9520   -2.6810   19.8000 C.3    28  ALA28       0.1728
     34  C          8.5320   -3.3870   21.0300 C.2    28  ALA28       0.2616
     35  O          8.9650   -2.7250   21.9780 O.2    28  ALA28      -0.2715
     36  CB         9.0270   -1.9080   19.0830 C.3    28  ALA28       0.0334
     37  N          8.5160   -4.7170   21.0320 N.am   29  ASP29      -0.1957
     38  CA         9.1560   -5.4730   22.1160 C.3    29  ASP29       0.1840
     39  C         10.6610   -5.2130   22.1180 C.2    29  ASP29       0.2622
     40  O         11.2600   -5.0120   23.1720 O.2    29  ASP29      -0.2715
     41  CB         8.9190   -6.9760   21.9490 C.3    29  ASP29       0.1450
     42  CG         7.4460   -7.3400   21.9050 C.2    29  ASP29       0.3671
     43  OD1        6.6170   -6.6060   22.4880 O.co2  29  ASP29      -0.2456
     44  OD2        7.1220   -8.3810   21.2910 O.co2  29  ASP29      -0.2456
     45  N         11.2440   -5.2180   20.9180 N.am   30  ASP30      -0.1971
     46  CA        12.6840   -5.1980   20.7150 C.3    30  ASP30       0.1709
     47  C         13.1270   -3.9050   20.0450 C.2    30  ASP30       0.2293
     48  O         12.3050   -3.1130   19.5980 O.2    30  ASP30      -0.2864
     49  CB        13.1060   -6.3660   19.8270 C.3    30  ASP30       0.1436
     50  CG        12.7710   -7.7140   20.4270 C.2    30  ASP30       0.3671
     51  OD1       12.9730   -7.9190   21.6380 O.co2  30  ASP30      -0.2456
     52  OD2       12.3060   -8.5820   19.6710 O.co2  30  ASP30      -0.2456
     53  N         15.2130   -2.2080   16.9470 N.3    32  VAL32      -0.1245
     54  CA        15.6120   -2.5580   15.5900 C.3    32  VAL32       0.1561
     55  C         16.2610   -1.3600   14.9330 C.2    32  VAL32       0.2260
     56  O         15.6100   -0.3460   14.6940 O.2    32  VAL32      -0.2867
     57  CB        14.3920   -2.9790   14.7310 C.3    32  VAL32       0.0252
     58  CG1       14.8480   -3.7740   13.5010 C.3    32  VAL32       0.0019
     59  CG2       13.3780   -3.7620   15.5760 C.3    32  VAL32       0.0019
     60  N         17.5720  -13.6130   13.6080 N.3    45  LYS45      -0.1231
     61  CA        16.2430  -13.5480   14.1890 C.3    45  LYS45       0.1693
     62  C         15.2090  -13.1480   13.1460 C.2    45  LYS45       0.2592
     63  O         15.5130  -12.4780   12.1600 O.2    45  LYS45      -0.2718
     64  CB        16.2210  -12.5930   15.3880 C.3    45  LYS45       0.0285
     65  CG        15.0760  -12.7850   16.3770 C.3    45  LYS45       0.0035
     66  CD        15.1500  -11.6950   17.4290 C.3    45  LYS45       0.0206
     67  CE        13.9210  -11.6380   18.3270 C.3    45  LYS45       0.1093
     68  NZ        13.5680  -12.9690   18.8610 N.3    45  LYS45      -0.1314
     69  N         13.9810  -13.5940   13.3710 N.am   46  MET46      -0.1965
     70  CA        12.8550  -13.1150   12.5930 C.3    46  MET46       0.1736
     71  C         11.9880  -12.3150   13.5390 C.2    46  MET46       0.2616
     72  O         11.7210  -12.7520   14.6590 O.2    46  MET46      -0.2715
     73  CB        12.0540  -14.2810   12.0290 C.3    46  MET46       0.0427
     74  CG        12.8460  -15.1510   11.0890 C.3    46  MET46       0.0599
     75  SD        12.8830  -14.4440    9.4480 S.3    46  MET46      -0.1393
     76  CE        11.1870  -14.6720    8.8910 C.3    46  MET46       0.0692
     77  N         11.5760  -11.1400   13.0850 N.am   47  ILE47      -0.1963
     78  CA        10.6550  -10.2960   13.8290 C.3    47  ILE47       0.1727
     79  C          9.4850   -9.8700   12.9540 C.2    47  ILE47       0.2617
     80  O          9.6210   -9.6790   11.7380 O.2    47  ILE47      -0.2715
     81  CB        11.3670   -9.0520   14.4360 C.3    47  ILE47       0.0290
     82  CG1       12.1230   -8.2810   13.3530 C.3    47  ILE47       0.0022
     83  CG2       12.3040   -9.4880   15.5390 C.3    47  ILE47       0.0023
     84  CD1       12.4160   -6.8290   13.7050 C.3    47  ILE47       0.0001
     85  N          8.3200   -9.7570   13.5820 N.am   48  GLY48      -0.1940
     86  CA         7.0970   -9.5120   12.8530 C.3    48  GLY48       0.2014
     87  C          6.5760   -8.1090   13.0600 C.2    48  GLY48       0.2639
     88  O          6.8180   -7.4660   14.0880 O.2    48  GLY48      -0.2714
     89  N          5.8650   -7.6480   12.0390 N.am   49  GLY49      -0.1939
     90  CA         4.9950   -6.4980   12.1630 C.3    49  GLY49       0.2014
     91  C          3.7450   -6.5990   11.3080 C.2    49  GLY49       0.2638
     92  O          3.3540   -7.6690   10.8500 O.2    49  GLY49      -0.2714
     93  N          3.1450   -5.4410   11.0720 N.am   50  ILE50      -0.1977
     94  CA         1.9350   -5.2950   10.2840 C.3    50  ILE50       0.1596
     95  C          1.8920   -6.1990    9.0480 C.2    50  ILE50       0.2287
     96  O          0.8940   -6.9060    8.8310 O.2    50  ILE50      -0.2864
     97  CB         1.6890   -3.7870    9.9930 C.3    50  ILE50       0.0276
     98  CG1        0.6810   -3.2200   10.9980 C.3    50  ILE50       0.0022
     99  CG2        1.2330   -3.5100    8.5660 C.3    50  ILE50       0.0022
    100  CD1        1.0870   -3.4240   12.4320 C.3    50  ILE50       0.0001
    101  N          7.2650  -10.6050    8.2550 N.3    53  PHE53      -0.1241
    102  CA         8.4740  -10.7290    9.0520 C.3    53  PHE53       0.1605
    103  C          9.6790  -10.3120    8.2670 C.2    53  PHE53       0.2264
    104  O          9.7090  -10.4780    7.0560 O.2    53  PHE53      -0.2867
    105  CB         8.6730  -12.1680    9.4870 C.3    53  PHE53       0.0534
    106  CG         7.7850  -12.5610   10.6160 C.ar   53  PHE53      -0.0203
    107  CD1        6.4380  -12.8350   10.3910 C.ar   53  PHE53      -0.0042
    108  CD2        8.2860  -12.6150   11.9010 C.ar   53  PHE53      -0.0042
    109  CE1        5.6060  -13.1930   11.4500 C.ar   53  PHE53      -0.0003
    110  CE2        7.4550  -12.9420   12.9560 C.ar   53  PHE53      -0.0003
    111  CZ         6.1090  -13.2370   12.7220 C.ar   53  PHE53      -0.0000
    112  N         15.0740   -2.2660    8.3840 N.3    80  THR80      -0.1204
    113  CA        14.0010   -1.3720    8.8400 C.3    80  THR80       0.1979
    114  C         14.2240    0.0450    8.2910 C.2    80  THR80       0.2460
    115  O         15.3520    0.5510    8.3030 O.2    80  THR80      -0.2732
    116  CB        13.8850   -1.3640   10.4030 C.3    80  THR80       0.1783
    117  OG1       12.9640   -0.3540   10.8300 O.3    80  THR80      -0.2211
    118  CG2       15.2280   -1.0880   11.0690 C.3    80  THR80       0.0376
    119  N         13.1530    0.6840    7.7810 N.am   81  PRO81      -0.2717
    120  CA        13.1860    2.0860    7.3500 C.3    81  PRO81       0.1535
    121  C         13.5250    3.0530    8.4770 C.2    81  PRO81       0.2598
    122  O         13.9860    4.1670    8.2220 O.2    81  PRO81      -0.2715
    123  CB        11.7460    2.3500    6.8980 C.3    81  PRO81       0.0310
    124  CG        10.9320    1.3070    7.5480 C.3    81  PRO81       0.0237
    125  CD        11.8170    0.0960    7.5950 C.3    81  PRO81       0.0939
    126  N         13.2540    2.6480    9.7140 N.am   82  VAL82      -0.1978
    127  CA        13.4120    3.5510   10.8480 C.3    82  VAL82       0.1596
    128  C         14.0990    2.8830   12.0290 C.2    82  VAL82       0.2287
    129  O         13.8350    1.7210   12.3480 O.2    82  VAL82      -0.2864
    130  CB        12.0630    4.1590   11.3060 C.3    82  VAL82       0.0276
    131  CG1       11.3850    4.8780   10.1380 C.3    82  VAL82       0.0022
    132  CG2       11.1560    3.0730   11.8480 C.3    82  VAL82       0.0022
    133  N         14.3860    2.0460   15.6530 N.3    84  ILE84      -0.1245
    134  CA        13.2600    1.7780   16.5390 C.3    84  ILE84       0.1561
    135  C         13.7690    1.4720   17.9220 C.2    84  ILE84       0.2260
    136  O         14.4860    0.4800   18.0940 O.2    84  ILE84      -0.2867
    137  CB        12.4420    0.5570   16.0730 C.3    84  ILE84       0.0252
    138  CG1       11.6950    0.8980   14.7760 C.3    84  ILE84       0.0019
    139  CG2       11.4740    0.1080   17.1790 C.3    84  ILE84       0.0019
    140  CD1       10.7600   -0.1930   14.2950 C.3    84  ILE84       0.0001
@<TRIPOS>BOND
     1   123   120    1
     2   123   124    1
     3   104   103    2
     4   120   119    1
     5   120   121    1
     6   124   125    1
     7   125   119    1
     8   119   114   am
     9   122   121    2
    10   101   102    1
    11   103   102    1
    12   114   115    2
    13   114   113    1
    14   112   113    1
    15   121   126   am
    16    99    97    1
    17    96    95    2
    18   113   116    1
    19    76    75    1
    20    95    94    1
    21   102   105    1
    22    11     9    1
    23    75    74    1
    24   105   106    1
    25   126   127    1
    26    97    94    1
    27    97    98    1
    28    10     9    1
    29   131   130    1
    30     9     8    2
    31    94    93    1
    32   107   106   ar
    33   107   109   ar
    34   116   117    1
    35   116   118    1
    36   106   108   ar
    37   127   130    1
    38   127   128    1
    39    92    91    2
    40    98   100    1
    41    93    91   am
    42    74    73    1
    43     8     7    1
    44   130   132    1
    45    91    90    1
    46   109   111   ar
    47    80    79    2
    48   108   110   ar
    49    73    70    1
    50   128   129    2
    51    89    90    1
    52    89    87   am
    53    63    62    2
    54     7     6    1
    55    70    69    1
    56    70    71    1
    57   111   110   ar
    58    86    87    1
    59    86    85    1
    60    79    85   am
    61    79    78    1
    62    87    88    2
    63    77    71   am
    64    77    78    1
    65    62    69   am
    66    62    61    1
    67     6     5    1
    68    82    84    1
    69    82    81    1
    70    58    57    1
    71    71    72    2
    72    60    61    1
    73    78    81    1
    74    61    64    1
    75   140   138    1
    76     5     2    1
    77    81    83    1
    78    56    55    2
    79    57    59    1
    80    57    54    1
    81   138   137    1
    82    19    17    1
    83    55    54    1
    84     1     2    1
    85    64    65    1
    86     2     3    1
    87    54    53    1
    88   133   134    1
    89   137   134    1
    90   137   139    1
    91    17    16    1
    92    17    18    1
    93    16    13    1
    94    65    66    1
    95     4     3    2
    96   134   135    1
    97    12    13    1
    98    27    25   am
    99    13    14    1
   100    66    67    1
   101   135   136    2
   102    25    26    2
   103    25    24    1
   104    67    68    1
   105    14    15    2
   106    24    21    1
   107    36    33    1
   108    31    30    2
   109    48    47    2
   110    52    50   ar
   111    33    32    1
   112    33    34    1
   113    49    50    1
   114    49    46    1
   115    30    32   am
   116    30    29    1
   117    47    46    1
   118    21    20    1
   119    21    22    1
   120    29    28    1
   121    50    51   ar
   122    46    45    1
   123    45    39   am
   124    34    37   am
   125    34    35    2
   126    37    38    1
   127    22    23    2
   128    44    42   ar
   129    42    41    1
   130    42    43   ar
   131    41    38    1
   132    38    39    1
   133    39    40    2
