@<TRIPOS>MOLECULE
tmp/2nxwA01.pdb
 155 150 0 0 0
SMALL
GASTEIGER

@<TRIPOS>ATOM
      1  N         28.9900   15.5080   33.2900 N.3    88  ASN88      -0.1240
      2  CA        29.0990   14.1600   33.8180 C.3    88  ASN88       0.1653
      3  C         28.2840   13.1420   33.0110 C.2    88  ASN88       0.2266
      4  O         28.7900   12.0720   32.6540 O.2    88  ASN88      -0.2867
      5  CB        28.6710   14.1420   35.2890 C.3    88  ASN88       0.1155
      6  CG        28.6910   12.7570   35.8680 C.2    88  ASN88       0.2627
      7  OD1       29.6710   12.0210   35.7130 O.2    88  ASN88      -0.2716
      8  ND2       27.6110   12.3820   36.5420 N.am   88  ASN88      -0.0877
      9  N         24.0090    3.0000   40.0180 N.3   378  MET378     -0.1230
     10  CA        25.2050    2.3620   40.5560 C.3   378  MET378      0.1702
     11  C         24.9580    2.1710   42.0500 C.2   378  MET378      0.2593
     12  O         24.4730    3.0850   42.7260 O.2   378  MET378     -0.2718
     13  CB        26.4330    3.2540   40.3440 C.3   378  MET378      0.0401
     14  CG        27.6990    2.7250   41.0030 C.3   378  MET378      0.0596
     15  SD        28.1400    1.0870   40.4240 S.3   378  MET378     -0.1393
     16  CE        29.6300    0.8090   41.3640 C.3   378  MET378      0.0692
     17  N         25.2870    0.9810   42.5450 N.am  379  GLY379     -0.1942
     18  CA        25.0870    0.6440   43.9520 C.3   379  GLY379      0.2014
     19  C         24.7140   -0.8260   44.0210 C.2   379  GLY379      0.2639
     20  O         24.8000   -1.5360   43.0240 O.2   379  GLY379     -0.2714
     21  N         24.3070   -1.3190   45.1880 N.am  380  ASP380     -0.1957
     22  CA        23.9300   -2.7240   45.2660 C.3   380  ASP380      0.1840
     23  C         22.7100   -3.0090   44.3840 C.2   380  ASP380      0.2622
     24  O         22.4480   -4.1560   44.0250 O.2   380  ASP380     -0.2715
     25  CB        23.6770   -3.1450   46.7210 C.3   380  ASP380      0.1450
     26  CG        23.7800   -4.6560   46.9150 C.2   380  ASP380      0.3671
     27  OD1       24.3000   -5.3440   46.0100 O.co2 380  ASP380     -0.2456
     28  OD2       23.3420   -5.1460   47.9780 O.co2 380  ASP380     -0.2456
     29  N         21.9700   -1.9670   44.0060 N.am  381  CYS381     -0.1968
     30  CA        20.8340   -2.1770   43.1110 C.3   381  CYS381      0.1712
     31  C         21.3080   -2.8240   41.7940 C.2   381  CYS381      0.2296
     32  O         20.6250   -3.6890   41.2480 O.2   381  CYS381     -0.2864
     33  CB        20.1240   -0.8490   42.8240 C.3   381  CYS381      0.0983
     34  SG        21.1580    0.4710   42.1270 S.3   381  CYS381     -0.0798
     35  N         30.3100    3.6190   36.2950 N.3   400  ALA400     -0.1231
     36  CA        29.9680    3.5750   37.7210 C.3   400  ALA400      0.1694
     37  C         29.5470    4.8940   38.3460 C.2   400  ALA400      0.2593
     38  O         29.7160    5.0940   39.5500 O.2   400  ALA400     -0.2718
     39  CB        31.1300    2.9740   38.5130 C.3   400  ALA400      0.0304
     40  N         28.9800    5.7870   37.5460 N.am  401  GLY401     -0.1942
     41  CA        28.5310    7.0600   38.0810 C.3   401  GLY401      0.2014
     42  C         27.0940    6.9660   38.5690 C.2   401  GLY401      0.2638
     43  O         26.2350    6.3890   37.9070 O.2   401  GLY401     -0.2714
     44  N         26.8350    7.5350   39.7350 N.am  402  MET402     -0.1976
     45  CA        25.4910    7.5280   40.3080 C.3   402  MET402      0.1605
     46  C         24.5780    8.5870   39.7170 C.2   402  MET402      0.2287
     47  O         25.0320    9.6440   39.2610 O.2   402  MET402     -0.2864
     48  CB        25.5510    7.7740   41.8170 C.3   402  MET402      0.0413
     49  CG        26.1320    6.6460   42.6160 C.3   402  MET402      0.0598
     50  SD        26.4980    7.1970   44.2700 S.3   402  MET402     -0.1393
     51  CE        24.8280    7.5180   44.9410 C.3   402  MET402      0.0692
     52  N         19.3350    2.9490   44.6080 N.3   426  GLY426     -0.1210
     53  CA        19.5530    3.0270   46.0470 C.3   426  GLY426      0.1956
     54  C         19.1240    4.3660   46.6290 C.2   426  GLY426      0.2612
     55  O         18.7820    5.2980   45.9000 O.2   426  GLY426     -0.2717
     56  N         19.1370    4.4840   47.9540 N.am  427  ASP427     -0.1959
     57  CA        18.7350    5.7260   48.5870 C.3   427  ASP427      0.1840
     58  C         19.6810    6.8940   48.2940 C.2   427  ASP427      0.2623
     59  O         19.2410    8.0230   48.0760 O.2   427  ASP427     -0.2715
     60  CB        18.5380    5.5320   50.1160 C.3   427  ASP427      0.1450
     61  CG        19.7480    4.9150   50.8250 C.2   427  ASP427      0.3671
     62  OD1       20.2680    3.8600   50.3880 O.co2 427  ASP427     -0.2456
     63  OD2       20.1350    5.4950   51.8600 O.co2 427  ASP427     -0.2456
     64  N         20.9790    6.6180   48.2760 N.am  428  GLY428     -0.1940
     65  CA        21.9320    7.6740   47.9780 C.3   428  GLY428      0.2014
     66  C         21.7230    8.2140   46.5750 C.2   428  GLY428      0.2638
     67  O         21.6950    9.4360   46.3590 O.2   428  GLY428     -0.2714
     68  N         21.5590    7.3090   45.6150 N.am  429  ALA429     -0.1977
     69  CA        21.3470    7.7360   44.2300 C.3   429  ALA429      0.1597
     70  C         19.9970    8.4220   44.0330 C.2   429  ALA429      0.2287
     71  O         19.8910    9.3690   43.2500 O.2   429  ALA429     -0.2864
     72  CB        21.4640    6.5600   43.2910 C.3   429  ALA429      0.0319
     73  N         19.9230   12.0120   44.6280 N.3   432  MET432     -0.1245
     74  CA        20.5360   12.7950   43.5620 C.3   432  MET432      0.1570
     75  C         19.5860   13.1300   42.4160 C.2   432  MET432      0.2261
     76  O         19.4170   14.3010   42.0720 O.2   432  MET432     -0.2867
     77  CB        21.7400   12.0470   42.9680 C.3   432  MET432      0.0387
     78  CG        22.8820   11.7900   43.9480 C.3   432  MET432      0.0595
     79  SD        24.2170   10.9010   43.0970 S.3   432  MET432     -0.1393
     80  CE        25.5430   11.0310   44.3230 C.3   432  MET432      0.0692
     81  N         16.0300    0.8840   46.9690 N.3   452  PHE452     -0.1241
     82  CA        16.7020    0.0970   48.0050 C.3   452  PHE452      0.1605
     83  C         17.1060    1.0830   49.1020 C.2   452  PHE452      0.2264
     84  O         18.1190    1.7800   48.9800 O.2   452  PHE452     -0.2867
     85  CB        17.9650   -0.5710   47.4200 C.3   452  PHE452      0.0534
     86  CG        17.7000   -1.7150   46.4620 C.ar  452  PHE452     -0.0203
     87  CD1       18.4730   -2.8700   46.5300 C.ar  452  PHE452     -0.0042
     88  CD2       16.7360   -1.6140   45.4490 C.ar  452  PHE452     -0.0042
     89  CE1       18.3030   -3.9080   45.6170 C.ar  452  PHE452     -0.0003
     90  CE2       16.5560   -2.6500   44.5250 C.ar  452  PHE452     -0.0003
     91  CZ        17.3420   -3.7990   44.6090 C.ar  452  PHE452     -0.0000
     92  N         18.6480    1.5450   52.4620 N.3   454  ASN454     -0.1240
     93  CA        19.4000    1.0370   53.6040 C.3   454  ASN454      0.1653
     94  C         19.9880    2.1910   54.4260 C.2   454  ASN454      0.2266
     95  O         20.8120    1.9600   55.3090 O.2   454  ASN454     -0.2867
     96  CB        20.5080    0.0400   53.1740 C.3   454  ASN454      0.1155
     97  CG        21.3920    0.5520   52.0270 C.2   454  ASN454      0.2627
     98  OD1       21.4700    1.7490   51.7650 O.2   454  ASN454     -0.2716
     99  ND2       22.0820   -0.3730   51.3650 N.am  454  ASN454     -0.0877
    100  N         22.1120    4.3480   53.7780 N.3   456  SER456     -0.1202
    101  CA        23.5460    4.1460   53.7050 C.3   456  SER456      0.2020
    102  C         24.1050    4.2160   52.3010 C.2   456  SER456      0.2619
    103  O         23.4110    3.9180   51.3220 O.2   456  SER456     -0.2717
    104  CB        23.8370    2.7350   54.2430 C.3   456  SER456      0.2103
    105  OG        25.2060    2.3790   54.1770 O.3   456  SER456     -0.2182
    106  N         25.3700    4.6190   52.2120 N.am  457  TRP457     -0.1961
    107  CA        26.1040    4.5560   50.9500 C.3   457  TRP457      0.1771
    108  C         26.7790    3.2020   51.2080 C.2   457  TRP457      0.2620
    109  O         27.9690    3.1200   51.5550 O.2   457  TRP457     -0.2715
    110  CB        27.1500    5.6680   50.8740 C.3   457  TRP457      0.0590
    111  CG        26.6250    7.0010   50.4310 C.ar  457  TRP457      0.0006
    112  CD1       25.6190    7.2500   49.5170 C.ar  457  TRP457      0.0946
    113  CD2       27.1230    8.2800   50.8300 C.ar  457  TRP457      0.0152
    114  NE1       25.4750    8.6060   49.3360 N.ar  457  TRP457     -0.2442
    115  CE2       26.3830    9.2600   50.1280 C.ar  457  TRP457      0.0810
    116  CE3       28.1270    8.6950   51.7160 C.ar  457  TRP457      0.0012
    117  CZ2       26.6130   10.6260   50.2830 C.ar  457  TRP457      0.0191
    118  CZ3       28.3570   10.0430   51.8730 C.ar  457  TRP457      0.0001
    119  CH2       27.6050   11.0010   51.1610 C.ar  457  TRP457      0.0015
    120  N         26.0060    2.1320   51.0590 N.am  458  GLU458     -0.1963
    121  CA        26.4770    0.8030   51.4120 C.3   458  GLU458      0.1733
    122  C         27.6640    0.2540   50.6480 C.2   458  GLU458      0.2616
    123  O         28.5000   -0.4370   51.2270 O.2   458  GLU458     -0.2715
    124  CB        25.3080   -0.1890   51.3870 C.3   458  GLU458      0.0429
    125  CG        25.5540   -1.5140   52.1490 C.3   458  GLU458      0.1163
    126  CD        25.7210   -1.3620   53.6650 C.2   458  GLU458      0.3649
    127  OE1       25.3680   -0.3080   54.2430 O.co2 458  GLU458     -0.2457
    128  OE2       26.2090   -2.3380   54.2830 O.co2 458  GLU458     -0.2457
    129  N         27.7630    0.5290   49.3570 N.am  459  MET459     -0.1963
    130  CA        28.9230    0.0360   48.6350 C.3   459  MET459      0.1736
    131  C         30.2010    0.5990   49.2430 C.2   459  MET459      0.2616
    132  O         31.2310   -0.0830   49.2800 O.2   459  MET459     -0.2715
    133  CB        28.8490    0.4230   47.1600 C.3   459  MET459      0.0427
    134  CG        27.9700   -0.4930   46.3570 C.3   459  MET459      0.0599
    135  SD        28.2850   -0.3590   44.5940 S.3   459  MET459     -0.1393
    136  CE        29.8980   -1.1700   44.4830 C.3   459  MET459      0.0692
    137  N         30.1440    1.8350   49.7260 N.am  460  LEU460     -0.1977
    138  CA        31.3290    2.4370   50.3340 C.3   460  LEU460      0.1596
    139  C         31.5820    1.8260   51.7120 C.2   460  LEU460      0.2287
    140  O         32.7350    1.6710   52.1250 O.2   460  LEU460     -0.2864
    141  CB        31.1710    3.9540   50.4210 C.3   460  LEU460      0.0297
    142  CG        30.9160    4.6460   49.0780 C.3   460  LEU460      0.0022
    143  CD1       30.9750    6.1500   49.2970 C.3   460  LEU460      0.0001
    144  CD2       31.9550    4.2240   48.0510 C.3   460  LEU460      0.0001
    145  N         33.7000   -1.2110   51.5080 N.3   463  PHE463     -0.1241
    146  CA        35.1130   -0.9310   51.2480 C.3   463  PHE463      0.1605
    147  C         35.8390   -0.3380   52.4510 C.2   463  PHE463      0.2264
    148  O         37.0450   -0.5630   52.6240 O.2   463  PHE463     -0.2867
    149  CB        35.2530    0.0550   50.0870 C.3   463  PHE463      0.0534
    150  CG        34.6590   -0.4270   48.7910 C.ar  463  PHE463     -0.0203
    151  CD1       34.2800    0.4850   47.8120 C.ar  463  PHE463     -0.0042
    152  CD2       34.4800   -1.7890   48.5470 C.ar  463  PHE463     -0.0042
    153  CE1       33.7290    0.0520   46.6070 C.ar  463  PHE463     -0.0003
    154  CE2       33.9310   -2.2350   47.3460 C.ar  463  PHE463     -0.0003
    155  CZ        33.5550   -1.3090   46.3750 C.ar  463  PHE463     -0.0000
@<TRIPOS>BOND
     1     4     3    2
     2     3     2    1
     3     1     2    1
     4     2     5    1
     5     5     6    1
     6     7     6    2
     7     6     8   am
     8    35    36    1
     9    40    41    1
    10    40    37   am
    11    36    37    1
    12    36    39    1
    13    43    42    2
    14    41    42    1
    15    37    38    2
    16    42    44   am
    17    47    46    2
    18    46    45    1
    19    44    45    1
    20     9    10    1
    21    45    48    1
    22    13    10    1
    23    13    14    1
    24    15    14    1
    25    15    16    1
    26    10    11    1
    27    32    31    2
    28    31    30    1
    29    48    49    1
    30    11    17   am
    31    11    12    2
    32    76    75    2
    33    34    33    1
    34    75    74    1
    35    17    18    1
    36    49    50    1
    37    33    30    1
    38    77    74    1
    39    77    78    1
    40    20    19    2
    41    79    78    1
    42    79    80    1
    43    30    29    1
    44    71    70    2
    45    72    69    1
    46    74    73    1
    47    18    19    1
    48    29    23   am
    49    19    21   am
    50    24    23    2
    51    70    69    1
    52    69    68    1
    53    50    51    1
    54    23    22    1
    55   136   135    1
    56    90    91   ar
    57    90    88   ar
    58   135   134    1
    59    52    53    1
    60    91    89   ar
    61    21    22    1
    62    22    25    1
    63    88    86   ar
    64    68    66   am
    65    89    87   ar
    66    55    54    2
    67    27    26   ar
    68    53    54    1
    69   134   133    1
    70    67    66    2
    71   155   153   ar
    72   155   154   ar
    73    86    87   ar
    74    86    85    1
    75    66    65    1
    76   153   151   ar
    77    54    56   am
    78    25    26    1
    79    26    28   ar
    80    81    82    1
    81   133   130    1
    82   154   152   ar
    83    85    82    1
    84   151   150   ar
    85    56    57    1
    86    65    64    1
    87    82    83    1
    88   144   142    1
    89    59    58    2
    90    64    58   am
    91    58    57    1
    92   152   150   ar
    93    57    60    1
    94   130   131    1
    95   130   129    1
    96   150   149    1
    97    84    83    2
    98   142   143    1
    99   142   141    1
   100   131   132    2
   101   131   137   am
   102   114   112   ar
   103   114   115   ar
   104   129   122   am
   105   112   111   ar
   106   137   138    1
   107   149   146    1
   108    60    61    1
   109   115   117   ar
   110   115   113   ar
   111   117   119   ar
   112   138   141    1
   113   138   139    1
   114    62    61   ar
   115   111   113   ar
   116   111   110    1
   117   122   123    2
   118   122   121    1
   119    61    63   ar
   120   113   116   ar
   121   110   107    1
   122   107   108    1
   123   107   106    1
   124   120   108   am
   125   120   121    1
   126   119   118   ar
   127   108   109    2
   128   146   145    1
   129   146   147    1
   130   103   102    2
   131    99    97   am
   132   124   121    1
   133   124   125    1
   134   139   140    2
   135   116   118   ar
   136    98    97    2
   137    97    96    1
   138   125   126    1
   139   106   102   am
   140   102   101    1
   141   147   148    2
   142    92    93    1
   143    96    93    1
   144    93    94    1
   145   126   127   ar
   146   126   128   ar
   147   101   100    1
   148   101   104    1
   149   105   104    1
   150    94    95    2
