@<TRIPOS>MOLECULE
tmp/2nxwA00.pdb
 70 67 0 0 0
SMALL
GASTEIGER

@<TRIPOS>ATOM
      1  N         16.4990   21.1680   28.5780 N.3    29  ILE29      -0.1231
      2  CA        16.0850   22.2220   29.4960 C.3    29  ILE29       0.1678
      3  C         16.5320   23.5010   28.7930 C.2    29  ILE29       0.2434
      4  O         17.7010   23.6590   28.4400 O.2    29  ILE29      -0.2733
      5  CB        16.7450   22.1140   30.9030 C.3    29  ILE29       0.0265
      6  CG1       16.1440   20.9220   31.6560 C.3    29  ILE29       0.0019
      7  CG2       16.4650   23.3930   31.7030 C.3    29  ILE29       0.0020
      8  CD1       16.8970   20.5400   32.9130 C.3    29  ILE29       0.0001
      9  N         15.5970   24.4280   28.5690 N.am   30  PRO30      -0.2718
     10  CA        15.9050   25.6860   27.8890 C.3    30  PRO30       0.1535
     11  C         16.5590   26.7530   28.7500 C.2    30  PRO30       0.2599
     12  O         16.6960   26.6050   29.9690 O.2    30  PRO30      -0.2715
     13  CB        14.5370   26.1280   27.3770 C.3    30  PRO30       0.0310
     14  CG        13.6440   25.7200   28.5150 C.3    30  PRO30       0.0237
     15  CD        14.1580   24.3250   28.8660 C.3    30  PRO30       0.0939
     16  N         16.9610   27.8240   28.0730 N.am   31  GLY31      -0.1941
     17  CA        17.5710   28.9750   28.7080 C.3    31  GLY31       0.2014
     18  C         17.5490   30.0740   27.6660 C.2    31  GLY31       0.2638
     19  O         17.2530   29.8080   26.5070 O.2    31  GLY31      -0.2714
     20  N         17.8620   31.2990   28.0650 N.am   32  ASP32      -0.1971
     21  CA        17.8610   32.4270   27.1380 C.3    32  ASP32       0.1709
     22  C         18.4610   32.1520   25.7630 C.2    32  ASP32       0.2293
     23  O         17.7990   32.3440   24.7380 O.2    32  ASP32      -0.2864
     24  CB        18.5990   33.6130   27.7620 C.3    32  ASP32       0.1436
     25  CG        17.7750   34.3270   28.8050 C.2    32  ASP32       0.3671
     26  OD1       17.0010   33.6570   29.5190 O.co2  32  ASP32      -0.2456
     27  OD2       17.9140   35.5630   28.9200 O.co2  32  ASP32      -0.2456
     28  N         16.4020   18.7420   35.8190 N.3    54  HIS54      -0.1226
     29  CA        17.8190   19.0900   36.0060 C.3    54  HIS54       0.1752
     30  C         18.6380   18.5060   34.8520 C.2    54  HIS54       0.2595
     31  O         18.3400   17.4070   34.3830 O.2    54  HIS54      -0.2718
     32  CB        18.2400   18.4920   37.3610 C.3    54  HIS54       0.0759
     33  CG        19.3850   19.1850   38.0320 C.ar   54  HIS54       0.0818
     34  ND1       20.0250   18.6410   39.1280 N.ar   54  HIS54      -0.2268
     35  CD2       19.9750   20.3840   37.8060 C.ar   54  HIS54       0.1154
     36  CE1       20.9610   19.4770   39.5450 C.ar   54  HIS54       0.1986
     37  NE2       20.9500   20.5420   38.7640 N.ar   54  HIS54      -0.2212
     38  N         19.6740   19.2270   34.4060 N.am   55  GLU55      -0.1979
     39  CA        20.4560   18.7570   33.2570 C.3    55  GLU55       0.1602
     40  C         21.0660   17.3570   33.3520 C.2    55  GLU55       0.2287
     41  O         21.1870   16.6780   32.3290 O.2    55  GLU55      -0.2864
     42  CB        21.5360   19.7760   32.8620 C.3    55  GLU55       0.0415
     43  CG        20.9810   21.0370   32.1840 C.3    55  GLU55       0.1163
     44  CD        20.4470   22.0900   33.1400 C.2    55  GLU55       0.3649
     45  OE1       20.5510   21.9250   34.3780 O.co2  55  GLU55      -0.2457
     46  OE2       19.9140   23.1120   32.6480 O.co2  55  GLU55      -0.2457
     47  N         21.2280   24.9060   27.4000 N.3    78  THR78      -0.1218
     48  CA        21.5200   26.3020   27.1440 C.3    78  THR78       0.1862
     49  C         22.9800   26.5590   27.5010 C.2    78  THR78       0.2287
     50  O         23.6070   25.7860   28.2290 O.2    78  THR78      -0.2866
     51  CB        20.5770   27.2250   27.9360 C.3    78  THR78       0.1770
     52  OG1       20.7130   28.5690   27.4480 O.3    78  THR78      -0.2211
     53  CG2       20.8920   27.1740   29.4340 C.3    78  THR78       0.0375
     54  N         25.9560   27.4920   32.4710 N.3    81  ALA81      -0.1231
     55  CA        25.5730   26.5730   33.5390 C.3    81  ALA81       0.1694
     56  C         24.8140   25.3440   33.0620 C.2    81  ALA81       0.2592
     57  O         25.1100   24.2200   33.4870 O.2    81  ALA81      -0.2718
     58  CB        24.7610   27.3180   34.6040 C.3    81  ALA81       0.0304
     59  N         23.8390   25.5510   32.1790 N.am   82  GLY82      -0.1957
     60  CA        23.0620   24.4300   31.6700 C.3    82  GLY82       0.1869
     61  C         23.9380   23.3480   31.0600 C.2    82  GLY82       0.2309
     62  O         23.8420   22.1680   31.4120 O.2    82  GLY82      -0.2863
     63  N         26.4370   21.6500   33.4690 N.3    85  ASN85      -0.1240
     64  CA        25.7220   20.7610   34.3700 C.3    85  ASN85       0.1653
     65  C         25.4400   19.3840   33.7550 C.2    85  ASN85       0.2266
     66  O         24.9280   18.5040   34.4310 O.2    85  ASN85      -0.2867
     67  CB        24.4140   21.4480   34.7900 C.3    85  ASN85       0.1155
     68  CG        23.8870   20.9620   36.1260 C.2    85  ASN85       0.2627
     69  OD1       24.6330   20.4490   36.9720 O.2    85  ASN85      -0.2716
     70  ND2       22.5900   21.1520   36.3390 N.am   85  ASN85      -0.0877
@<TRIPOS>BOND
     1    23    22    2
     2    22    21    1
     3    19    18    2
     4    21    24    1
     5    21    20    1
     6    48    47    1
     7    48    49    1
     8    48    51    1
     9    13    10    1
    10    13    14    1
    11    52    51    1
    12    49    50    2
    13    18    20   am
    14    18    17    1
    15    24    25    1
    16    10     9    1
    17    10    11    1
    18    51    53    1
    19    16    17    1
    20    16    11   am
    21     4     3    2
    22    14    15    1
    23     9     3   am
    24     9    15    1
    25     1     2    1
    26    11    12    2
    27     3     2    1
    28    25    27   ar
    29    25    26   ar
    30     2     5    1
    31     5     6    1
    32     5     7    1
    33    61    62    2
    34    61    60    1
    35     6     8    1
    36    60    59    1
    37    59    56   am
    38    43    42    1
    39    43    44    1
    40    41    40    2
    41    54    55    1
    42    46    44   ar
    43    42    39    1
    44    56    57    2
    45    56    55    1
    46    44    45   ar
    47    39    40    1
    48    39    38    1
    49    63    64    1
    50    55    58    1
    51    65    64    1
    52    65    66    2
    53    64    67    1
    54    31    30    2
    55    38    30   am
    56    67    68    1
    57    30    29    1
    58    28    29    1
    59    29    32    1
    60    68    70   am
    61    68    69    2
    62    32    33    1
    63    35    33   ar
    64    35    37   ar
    65    33    34   ar
    66    37    36   ar
    67    34    36   ar
