@<TRIPOS>MOLECULE
tmp/2nxyA03.pdb
 137 136 0 0 0
SMALL
GASTEIGER

@<TRIPOS>ATOM
      1  N         15.6740  -16.2130   79.6450 N.3    30  TRP30      -0.1241
      2  CA        15.9340  -14.8020   79.9310 C.3    30  TRP30       0.1605
      3  C         15.0780  -13.8440   79.0970 C.2    30  TRP30       0.2264
      4  O         14.5320  -12.8750   79.6270 O.2    30  TRP30      -0.2867
      5  CB        17.4190  -14.4950   79.7410 C.3    30  TRP30       0.0550
      6  CG        18.2230  -14.7620   80.9690 C.ar   30  TRP30       0.0003
      7  CD1       18.2730  -15.9270   81.6820 C.ar   30  TRP30       0.0946
      8  CD2       19.0910  -13.8430   81.6400 C.ar   30  TRP30       0.0152
      9  NE1       19.1140  -15.7880   82.7580 N.ar   30  TRP30      -0.2442
     10  CE2       19.6340  -14.5200   82.7530 C.ar   30  TRP30       0.0810
     11  CE3       19.4610  -12.5130   81.4110 C.ar   30  TRP30       0.0012
     12  CZ2       20.5260  -13.9130   83.6300 C.ar   30  TRP30       0.0191
     13  CZ3       20.3490  -11.9130   82.2820 C.ar   30  TRP30       0.0001
     14  CH2       20.8730  -12.6130   83.3780 C.ar   30  TRP30       0.0015
     15  N         23.6650  -17.4070   85.8070 N.3   109  VAL109     -0.1231
     16  CA        24.4880  -16.6120   84.9080 C.3   109  VAL109      0.1692
     17  C         25.4250  -15.7330   85.7380 C.2   109  VAL109      0.2593
     18  O         24.9740  -14.8750   86.4940 O.2   109  VAL109     -0.2718
     19  CB        23.6190  -15.7790   83.9310 C.3   109  VAL109      0.0266
     20  CG1       24.4790  -14.8010   83.1310 C.3   109  VAL109      0.0020
     21  CG2       22.8600  -16.7080   82.9950 C.3   109  VAL109      0.0020
     22  N         26.7290  -15.9840   85.6340 N.am  110  SER110     -0.1938
     23  CA        27.7100  -15.2160   86.3850 C.3   110  SER110      0.2055
     24  C         29.0700  -15.2990   85.7250 C.2   110  SER110      0.2643
     25  O         29.3050  -16.1660   84.8920 O.2   110  SER110     -0.2714
     26  CB        27.8280  -15.7450   87.8170 C.3   110  SER110      0.2130
     27  OG        28.6300  -16.9170   87.8520 O.3   110  SER110     -0.2179
     28  N         29.9700  -14.3970   86.1090 N.am  111  THR111     -0.1950
     29  CA        31.3620  -14.4820   85.6810 C.3   111  THR111      0.1897
     30  C         32.2690  -14.6890   86.8930 C.2   111  THR111      0.2313
     31  O         31.8700  -14.4250   88.0330 O.2   111  THR111     -0.2863
     32  CB        31.8190  -13.2120   84.9270 C.3   111  THR111      0.1794
     33  OG1       31.7330  -12.0780   85.8010 O.3   111  THR111     -0.2208
     34  CG2       30.9700  -12.9780   83.6720 C.3   111  THR111      0.0378
     35  N         31.6070   -6.5570   82.8230 N.3   195  GLU195     -0.1245
     36  CA        30.9730   -7.8130   83.2000 C.3   195  GLU195      0.1567
     37  C         31.9880   -8.9200   83.4830 C.2   195  GLU195      0.2260
     38  O         31.7330   -9.7940   84.3030 O.2   195  GLU195     -0.2867
     39  CB        29.9850   -8.2660   82.1220 C.3   195  GLU195      0.0388
     40  CG        28.7240   -7.4060   82.0180 C.3   195  GLU195      0.1160
     41  CD        28.9660   -6.0640   81.3390 C.2   195  GLU195      0.3649
     42  OE1       28.1240   -5.1560   81.4990 O.co2 195  GLU195     -0.2457
     43  OE2       29.9920   -5.9140   80.6410 O.co2 195  GLU195     -0.2457
     44  N         30.3590  -10.6370   88.1930 N.3   200  SER200     -0.1202
     45  CA        29.0300  -10.1370   87.8900 C.3   200  SER200      0.2020
     46  C         28.0260  -11.2730   87.9240 C.2   200  SER200      0.2619
     47  O         28.3390  -12.4160   87.5790 O.2   200  SER200     -0.2717
     48  CB        28.9890   -9.3920   86.5480 C.3   200  SER200      0.2103
     49  OG        29.1790  -10.2730   85.4540 O.3   200  SER200     -0.2182
     50  N         26.8260  -10.9360   88.3730 N.am  201  PHE201     -0.1961
     51  CA        25.7730  -11.8950   88.6430 C.3   201  PHE201      0.1771
     52  C         24.4770  -11.1040   88.8100 C.2   201  PHE201      0.2619
     53  O         24.4900   -9.8700   88.8260 O.2   201  PHE201     -0.2715
     54  CB        26.0930  -12.7020   89.9120 C.3   201  PHE201      0.0574
     55  CG        26.3200  -11.8510   91.1380 C.ar  201  PHE201     -0.0200
     56  CD1       27.5510  -11.2550   91.3680 C.ar  201  PHE201     -0.0042
     57  CD2       25.3070  -11.6560   92.0590 C.ar  201  PHE201     -0.0042
     58  CE1       27.7640  -10.4620   92.4820 C.ar  201  PHE201     -0.0003
     59  CE2       25.5100  -10.8720   93.1870 C.ar  201  PHE201     -0.0003
     60  CZ        26.7410  -10.2720   93.3980 C.ar  201  PHE201     -0.0000
     61  N         23.3600  -11.8100   88.9250 N.am  202  ASN202     -0.1972
     62  CA        22.0740  -11.1690   89.1490 C.3   202  ASN202      0.1688
     63  C         21.5100  -11.6240   90.4960 C.2   202  ASN202      0.2292
     64  O         21.5960  -12.7970   90.8470 O.2   202  ASN202     -0.2864
     65  CB        21.1220  -11.4690   87.9800 C.3   202  ASN202      0.1181
     66  CG        19.8310  -10.6830   88.0500 C.2   202  ASN202      0.2629
     67  OD1       18.9940  -10.9200   88.9170 O.2   202  ASN202     -0.2716
     68  ND2       19.6520   -9.7540   87.1170 N.am  202  ASN202     -0.0877
     69  N         21.3790   -6.3650   88.5420 N.3   207  PHE207     -0.1241
     70  CA        22.6670   -6.7780   88.0040 C.3   207  PHE207      0.1605
     71  C         23.8280   -6.2000   88.8110 C.2   207  PHE207      0.2264
     72  O         24.0540   -4.9870   88.8200 O.2   207  PHE207     -0.2867
     73  CB        22.7720   -6.4010   86.5280 C.3   207  PHE207      0.0534
     74  CG        21.7830   -7.1220   85.6600 C.ar  207  PHE207     -0.0203
     75  CD1       20.5420   -6.5670   85.3870 C.ar  207  PHE207     -0.0042
     76  CD2       22.0830   -8.3680   85.1390 C.ar  207  PHE207     -0.0042
     77  CE1       19.6190   -7.2340   84.6010 C.ar  207  PHE207     -0.0003
     78  CE2       21.1660   -9.0470   84.3500 C.ar  207  PHE207     -0.0003
     79  CZ        19.9310   -8.4750   84.0780 C.ar  207  PHE207     -0.0000
     80  N         27.8970   -5.9490   90.0480 N.3   209  TYR209     -0.1241
     81  CA        29.2580   -5.9110   89.5250 C.3   209  TYR209      0.1605
     82  C         30.1880   -5.7130   90.7080 C.2   209  TYR209      0.2264
     83  O         30.2860   -4.6090   91.2430 O.2   209  TYR209     -0.2867
     84  CB        29.4150   -4.7390   88.5550 C.3   209  TYR209      0.0534
     85  CG        28.6900   -4.9260   87.2390 C.ar  209  TYR209     -0.0201
     86  CD1       27.2990   -4.9150   87.1820 C.ar  209  TYR209     -0.0009
     87  CD2       29.3940   -5.1110   86.0540 C.ar  209  TYR209     -0.0009
     88  CE1       26.6240   -5.0950   85.9850 C.ar  209  TYR209      0.0417
     89  CE2       28.7300   -5.2790   84.8490 C.ar  209  TYR209      0.0417
     90  CZ        27.3420   -5.2790   84.8250 C.ar  209  TYR209      0.1957
     91  OH        26.6660   -5.4480   83.6380 O.3   209  TYR209     -0.2866
     92  N         23.8310   -2.5830   80.8660 N.3   237  ILE237     -0.1231
     93  CA        24.7090   -3.7390   80.8720 C.3   237  ILE237      0.1692
     94  C         25.0110   -4.2190   79.4510 C.2   237  ILE237      0.2592
     95  O         24.2180   -4.0070   78.5280 O.2   237  ILE237     -0.2718
     96  CB        24.0750   -4.8920   81.6800 C.3   237  ILE237      0.0266
     97  CG1       22.8940   -5.4980   80.9200 C.3   237  ILE237      0.0019
     98  CG2       23.6000   -4.3980   83.0480 C.3   237  ILE237      0.0020
     99  CD1       22.3010   -6.7230   81.5880 C.3   237  ILE237      0.0001
    100  N         26.1720   -4.8470   79.2800 N.am  238  ASN238     -0.1960
    101  CA        26.4690   -5.5820   78.0630 C.3   238  ASN238      0.1819
    102  C         25.8220   -6.9570   78.1820 C.2   238  ASN238      0.2621
    103  O         25.9170   -7.5880   79.2350 O.2   238  ASN238     -0.2715
    104  CB        27.9790   -5.7280   77.8760 C.3   238  ASN238      0.1195
    105  CG        28.6510   -4.4160   77.5530 C.2   238  ASN238      0.2630
    106  OD1       28.3350   -3.7750   76.5470 O.2   238  ASN238     -0.2716
    107  ND2       29.5880   -4.0060   78.4030 N.am  238  ASN238     -0.0877
    108  N         25.1470   -7.4010   77.1200 N.am  239  MET239     -0.1963
    109  CA        24.4270   -8.6820   77.1360 C.3   239  MET239      0.1736
    110  C         25.3610   -9.8840   76.9770 C.2   239  MET239      0.2616
    111  O         26.2830   -9.8580   76.1630 O.2   239  MET239     -0.2715
    112  CB        23.3640   -8.7230   76.0320 C.3   239  MET239      0.0427
    113  CG        22.2390   -7.7140   76.1900 C.3   239  MET239      0.0599
    114  SD        21.0060   -7.8500   74.8770 S.3   239  MET239     -0.1393
    115  CE        22.0330   -7.7630   73.4260 C.3   239  MET239      0.0692
    116  N         25.1030  -10.9380   77.7470 N.am  240  TRP240     -0.1974
    117  CA        25.8460  -12.1900   77.6100 C.3   240  TRP240      0.1640
    118  C         25.3090  -13.0720   76.4840 C.2   240  TRP240      0.2290
    119  O         26.0460  -13.8930   75.9480 O.2   240  TRP240     -0.2864
    120  CB        25.8380  -12.9880   78.9210 C.3   240  TRP240      0.0576
    121  CG        24.4670  -13.4350   79.3460 C.ar  240  TRP240      0.0006
    122  CD1       23.5950  -12.7520   80.1470 C.ar  240  TRP240      0.0946
    123  CD2       23.8100  -14.6620   78.9930 C.ar  240  TRP240      0.0152
    124  NE1       22.4330  -13.4730   80.3070 N.ar  240  TRP240     -0.2442
    125  CE2       22.5430  -14.6510   79.6150 C.ar  240  TRP240      0.0810
    126  CE3       24.1690  -15.7670   78.2110 C.ar  240  TRP240      0.0012
    127  CZ2       21.6390  -15.6990   79.4780 C.ar  240  TRP240      0.0191
    128  CZ3       23.2720  -16.8050   78.0800 C.ar  240  TRP240      0.0001
    129  CH2       22.0150  -16.7610   78.7040 C.ar  240  TRP240      0.0015
    130  N         29.0370  -18.1520   78.8620 N.3   288  MET288     -0.1245
    131  CA        28.2030  -18.9230   79.7790 C.3   288  MET288      0.1570
    132  C         28.1570  -20.4170   79.4610 C.2   288  MET288      0.2261
    133  O         27.6630  -21.2010   80.2680 O.2   288  MET288     -0.2867
    134  CB        26.7820  -18.3460   79.8500 C.3   288  MET288      0.0387
    135  CG        26.7360  -16.8970   80.3070 C.3   288  MET288      0.0595
    136  SD        27.5670  -16.6080   81.8810 S.3   288  MET288     -0.1393
    137  CE        27.9350  -14.8520   81.7610 C.3   288  MET288      0.0692
@<TRIPOS>BOND
     1   115   114    1
     2   114   113    1
     3   119   118    2
     4   112   113    1
     5   112   109    1
     6   111   110    2
     7   118   117    1
     8   106   105    2
     9   110   109    1
    10   110   116   am
    11   108   109    1
    12   108   102   am
    13   105   104    1
    14   105   107   am
    15   117   116    1
    16   117   120    1
    17   104   101    1
    18   101   102    1
    19   101   100    1
    20   128   126   ar
    21   128   129   ar
    22   102   103    2
    23   126   123   ar
    24    95    94    2
    25   129   127   ar
    26   130   131    1
    27   120   121    1
    28   123   121   ar
    29   123   125   ar
    30     3     4    2
    31     3     2    1
    32   100    94   am
    33   121   122   ar
    34    94    93    1
    35   132   131    1
    36   132   133    2
    37   127   125   ar
    38   125   124   ar
    39     1     2    1
    40     5     2    1
    41     5     6    1
    42   131   134    1
    43   134   135    1
    44   122   124   ar
    45   135   136    1
    46    43    41   ar
    47    92    93    1
    48    93    96    1
    49    97    99    1
    50    97    96    1
    51     6     8   ar
    52     6     7   ar
    53    41    42   ar
    54    41    40    1
    55    11     8   ar
    56    11    13   ar
    57     8    10   ar
    58    96    98    1
    59     7     9   ar
    60   137   136    1
    61    40    39    1
    62    39    36    1
    63    13    14   ar
    64    10     9   ar
    65    10    12   ar
    66    35    36    1
    67    21    19    1
    68    20    19    1
    69    36    37    1
    70    14    12   ar
    71    37    38    2
    72    91    90    1
    73    34    32    1
    74    19    16    1
    75    79    78   ar
    76    79    77   ar
    77    78    76   ar
    78    77    75   ar
    79    90    89   ar
    80    90    88   ar
    81    89    87   ar
    82    25    24    2
    83    16    17    1
    84    16    15    1
    85    32    29    1
    86    32    33    1
    87    76    74   ar
    88    75    74   ar
    89    49    48    1
    90    22    17   am
    91    22    23    1
    92    74    73    1
    93    29    28    1
    94    29    30    1
    95    24    28   am
    96    24    23    1
    97    17    18    2
    98    88    86   ar
    99    87    85   ar
   100    23    26    1
   101    73    70    1
   102    48    45    1
   103    30    31    2
   104    68    66   am
   105    86    85   ar
   106    85    84    1
   107    47    46    2
   108    26    27    1
   109    45    46    1
   110    45    44    1
   111    46    50   am
   112    65    66    1
   113    65    62    1
   114    70    69    1
   115    70    71    1
   116    66    67    2
   117    50    51    1
   118    84    81    1
   119    51    52    1
   120    51    54    1
   121    52    53    2
   122    52    61   am
   123    71    72    2
   124    61    62    1
   125    62    63    1
   126    81    80    1
   127    81    82    1
   128    54    55    1
   129    63    64    2
   130    82    83    2
   131    55    56   ar
   132    55    57   ar
   133    56    58   ar
   134    57    59   ar
   135    58    60   ar
   136    59    60   ar
