@<TRIPOS>MOLECULE
tmp/2nygC00.pdb
 166 161 0 0 0
SMALL
GASTEIGER

@<TRIPOS>ATOM
      1  N         29.7630   57.4860   36.6820 N.3     1  LEU1       -0.1245
      2  CA        29.3660   58.6740   37.4720 C.3     1  LEU1        0.1561
      3  C         28.7390   59.7770   36.6220 C.2     1  LEU1        0.2260
      4  O         27.6460   60.2550   36.9270 O.2     1  LEU1       -0.2867
      5  CB        30.6040   59.2390   38.2070 C.3     1  LEU1        0.0270
      6  CG        30.3540   59.3740   39.7180 C.3     1  LEU1        0.0019
      7  CD1       29.8040   58.0510   40.2600 C.3     1  LEU1        0.0001
      8  CD2       31.6440   59.7360   40.4600 C.3     1  LEU1        0.0001
      9  N         25.4300   58.9670   35.5540 N.3     4  ILE4       -0.1245
     10  CA        24.4860   58.9940   36.6800 C.3     4  ILE4        0.1561
     11  C         24.0710   60.4200   36.9960 C.2     4  ILE4        0.2260
     12  O         22.8850   60.7260   37.1140 O.2     4  ILE4       -0.2867
     13  CB        25.0890   58.3960   37.9630 C.3     4  ILE4        0.0252
     14  CG1       25.6800   57.0170   37.6740 C.3     4  ILE4        0.0019
     15  CG2       24.0250   58.3310   39.0560 C.3     4  ILE4        0.0019
     16  CD1       24.7340   56.0530   36.9890 C.3     4  ILE4        0.0001
     17  N         18.6970   44.1170   49.6470 N.3    35  HIS35      -0.1226
     18  CA        19.4840   43.8350   48.4560 C.3    35  HIS35       0.1752
     19  C         19.4010   45.1570   47.7200 C.2    35  HIS35       0.2597
     20  O         18.3210   45.5790   47.3070 O.2    35  HIS35      -0.2718
     21  CB        18.8670   42.7100   47.6370 C.3    35  HIS35       0.0759
     22  CG        18.7960   41.4120   48.3740 C.ar   35  HIS35       0.0818
     23  ND1       17.6640   40.9970   49.0430 N.ar   35  HIS35      -0.2268
     24  CD2       19.7390   40.4730   48.6140 C.ar   35  HIS35       0.1154
     25  CE1       17.9160   39.8610   49.6660 C.ar   35  HIS35       0.1986
     26  NE2       19.1670   39.5220   49.4220 N.ar   35  HIS35      -0.2212
     27  N         20.5380   45.8220   47.5650 N.am   36  SER36      -0.1938
     28  CA        20.5300   47.1360   46.9440 C.3    36  SER36       0.2055
     29  C         21.4350   47.3780   45.7620 C.2    36  SER36       0.2644
     30  O         22.3110   46.5830   45.4450 O.2    36  SER36      -0.2714
     31  CB        20.8750   48.1800   47.9890 C.3    36  SER36       0.2130
     32  OG        22.2340   48.0370   48.3470 O.3    36  SER36      -0.2179
     33  N         21.1830   48.5150   45.1220 N.am   37  SER37      -0.1935
     34  CA        21.9580   49.0080   44.0010 C.3    37  SER37       0.2055
     35  C         22.0440   50.5180   44.2050 C.2    37  SER37       0.2643
     36  O         21.0370   51.2150   44.1180 O.2    37  SER37      -0.2714
     37  CB        21.2670   48.7160   42.6800 C.3    37  SER37       0.2130
     38  OG        21.8990   49.4300   41.6280 O.3    37  SER37      -0.2179
     39  N         23.2370   51.0250   44.4900 N.am   38  LEU38      -0.1963
     40  CA        23.4250   52.4520   44.7030 C.3    38  LEU38       0.1728
     41  C         23.0660   53.3420   43.5020 C.2    38  LEU38       0.2616
     42  O         22.3070   54.2990   43.6470 O.2    38  LEU38      -0.2715
     43  CB        24.8740   52.7260   45.1240 C.3    38  LEU38       0.0311
     44  CG        25.3630   54.1830   45.2080 C.3    38  LEU38       0.0022
     45  CD1       24.4740   55.0010   46.1550 C.3    38  LEU38       0.0001
     46  CD2       26.7950   54.1970   45.6920 C.3    38  LEU38       0.0001
     47  N         23.6010   53.0360   42.3240 N.am   39  SER39      -0.1950
     48  CA        23.3400   53.8530   41.1390 C.3    39  SER39       0.1924
     49  C         21.8770   53.9070   40.6660 C.2    39  SER39       0.2314
     50  O         21.4520   54.8910   40.0580 O.2    39  SER39      -0.2863
     51  CB        24.2360   53.3880   39.9850 C.3    39  SER39       0.2116
     52  OG        23.8560   52.0970   39.5250 O.3    39  SER39      -0.2180
     53  N         20.0030   56.9010   41.4500 N.3    42  GLY42      -0.1210
     54  CA        20.3330   58.1370   40.7740 C.3    42  GLY42       0.1956
     55  C         21.3600   58.7650   41.6960 C.2    42  GLY42       0.2612
     56  O         21.5580   58.2660   42.8040 O.2    42  GLY42      -0.2717
     57  N         22.0070   59.8480   41.2810 N.am   43  TRP43      -0.1962
     58  CA        23.0200   60.4630   42.1320 C.3    43  TRP43       0.1771
     59  C         22.5440   60.8470   43.5280 C.2    43  TRP43       0.2619
     60  O         21.6250   61.6600   43.6790 O.2    43  TRP43      -0.2715
     61  CB        23.6090   61.7050   41.4790 C.3    43  TRP43       0.0590
     62  CG        24.8390   62.1160   42.2040 C.ar   43  TRP43       0.0006
     63  CD1       26.0270   61.4510   42.2190 C.ar   43  TRP43       0.0946
     64  CD2       24.9810   63.2080   43.1240 C.ar   43  TRP43       0.0152
     65  NE1       26.8970   62.0490   43.0910 N.ar   43  TRP43      -0.2442
     66  CE2       26.2830   63.1310   43.6610 C.ar   43  TRP43       0.0810
     67  CE3       24.1340   64.2430   43.5500 C.ar   43  TRP43       0.0012
     68  CZ2       26.7660   64.0490   44.6040 C.ar   43  TRP43       0.0191
     69  CZ3       24.6170   65.1620   44.4940 C.ar   43  TRP43       0.0001
     70  CH2       25.9230   65.0530   45.0070 C.ar   43  TRP43       0.0015
     71  N         23.1780   60.2730   44.5510 N.am   44  VAL44      -0.1977
     72  CA        22.8110   60.5900   45.9270 C.3    44  VAL44       0.1596
     73  C         23.9790   61.2650   46.6160 C.2    44  VAL44       0.2287
     74  O         25.1280   60.8440   46.4780 O.2    44  VAL44      -0.2864
     75  CB        22.3740   59.3220   46.7570 C.3    44  VAL44       0.0276
     76  CG1       22.0650   58.1710   45.8330 C.3    44  VAL44       0.0022
     77  CG2       23.4260   58.9400   47.7850 C.3    44  VAL44       0.0022
     78  N         26.6120   59.3230   48.7730 N.3    47  GLY47      -0.1225
     79  CA        26.5570   57.9410   48.3220 C.3    47  GLY47       0.1811
     80  C         26.0850   56.8780   49.3140 C.2    47  GLY47       0.2280
     81  O         25.0610   57.0320   49.9870 O.2    47  GLY47      -0.2866
     82  N         23.2570   40.3810   52.7710 N.3    68  PRO68      -0.2116
     83  CA        24.1850   39.2820   52.4840 C.3    68  PRO68       0.1372
     84  C         25.6070   39.8370   52.3390 C.2    68  PRO68       0.2244
     85  O         25.8010   40.9370   51.8330 O.2    68  PRO68      -0.2868
     86  CB        23.6290   38.6870   51.1870 C.3    68  PRO68       0.0268
     87  CG        22.8750   39.8600   50.5510 C.3    68  PRO68       0.0207
     88  CD        22.2230   40.5140   51.7290 C.3    68  PRO68       0.0892
     89  N         32.3870   40.6890   44.4940 N.3   109  ARG109     -0.1231
     90  CA        32.0910   41.9110   43.7470 C.3   109  ARG109      0.1694
     91  C         30.6100   42.2890   43.5990 C.2   109  ARG109      0.2593
     92  O         30.2130   43.4250   43.8680 O.2   109  ARG109     -0.2718
     93  CB        32.7440   41.8440   42.3740 C.3   109  ARG109      0.0321
     94  CG        34.2590   41.6870   42.4610 C.3   109  ARG109      0.0489
     95  CD        34.9930   43.0240   42.4620 C.3   109  ARG109      0.2205
     96  NE        34.5250   43.9330   43.4940 N.pl3 109  ARG109     -0.0865
     97  CZ        34.8900   43.7920   44.7680 C.cat 109  ARG109      0.5346
     98  NH1       35.6970   42.8000   45.1420 N.pl3 109  ARG109      0.1354
     99  NH2       34.4780   44.6830   45.6640 N.pl3 109  ARG109      0.1354
    100  N         29.7910   41.3340   43.1890 N.am  110  GLY110     -0.1942
    101  CA        28.3810   41.6140   42.9990 C.3   110  GLY110      0.2014
    102  C         27.5180   41.9290   44.2120 C.2   110  GLY110      0.2639
    103  O         26.3040   42.0610   44.0660 O.2   110  GLY110     -0.2714
    104  N         28.1010   42.0350   45.4050 N.am  111  MET111     -0.1963
    105  CA        27.2940   42.3510   46.5900 C.3   111  MET111      0.1736
    106  C         26.8760   43.8230   46.5870 C.2   111  MET111      0.2617
    107  O         25.8430   44.1860   47.1640 O.2   111  MET111     -0.2715
    108  CB        28.0600   42.0560   47.8850 C.3   111  MET111      0.0427
    109  CG        28.3910   40.5880   48.1290 C.3   111  MET111      0.0599
    110  SD        26.9920   39.4420   47.9890 S.3   111  MET111     -0.1393
    111  CE        26.1090   39.8620   49.3520 C.3   111  MET111      0.0692
    112  N         27.6930   44.6610   45.9460 N.am  112  GLY112     -0.1940
    113  CA        27.3920   46.0750   45.8670 C.3   112  GLY112      0.2014
    114  C         28.1650   46.9080   46.8650 C.2   112  GLY112      0.2639
    115  O         28.6090   46.3990   47.8980 O.2   112  GLY112     -0.2714
    116  N         28.3020   48.1980   46.5690 N.am  113  GLN113     -0.1963
    117  CA        29.0510   49.0910   47.4380 C.3   113  GLN113      0.1733
    118  C         28.4360   49.3700   48.7870 C.2   113  GLN113      0.2616
    119  O         29.1540   49.6370   49.7440 O.2   113  GLN113     -0.2715
    120  CB        29.3230   50.4080   46.7420 C.3   113  GLN113      0.0408
    121  CG        30.3380   50.2780   45.6180 C.3   113  GLN113      0.0908
    122  CD        30.8640   51.6290   45.1610 C.2   113  GLN113      0.2608
    123  OE1       31.6450   51.7130   44.2030 O.2   113  GLN113     -0.2717
    124  NE2       30.4400   52.7000   45.8500 N.am  113  GLN113     -0.0878
    125  N         27.1120   49.3110   48.8680 N.am  114  ILE114     -0.1963
    126  CA        26.4380   49.5620   50.1340 C.3   114  ILE114      0.1727
    127  C         26.7520   48.4220   51.1010 C.2   114  ILE114      0.2616
    128  O         26.9880   48.6580   52.2790 O.2   114  ILE114     -0.2715
    129  CB        24.9170   49.7030   49.9250 C.3   114  ILE114      0.0290
    130  CG1       24.6220   51.0130   49.1880 C.3   114  ILE114      0.0022
    131  CG2       24.1900   49.6360   51.2560 C.3   114  ILE114      0.0023
    132  CD1       23.2480   51.0690   48.5410 C.3   114  ILE114      0.0001
    133  N         26.7740   47.1920   50.5980 N.am  115  VAL115     -0.1977
    134  CA        27.0830   46.0460   51.4390 C.3   115  VAL115      0.1596
    135  C         28.5390   46.0880   51.8350 C.2   115  VAL115      0.2287
    136  O         28.8890   45.7590   52.9570 O.2   115  VAL115     -0.2864
    137  CB        26.8300   44.7170   50.7130 C.3   115  VAL115      0.0276
    138  CG1       27.4650   43.5700   51.4780 C.3   115  VAL115      0.0022
    139  CG2       25.3490   44.4830   50.5780 C.3   115  VAL115      0.0022
    140  N         17.2110   46.7930   43.2380 N.3   175  ALA175     -0.1231
    141  CA        17.7720   45.5140   42.8190 C.3   175  ALA175      0.1694
    142  C         16.6160   44.5990   42.4130 C.2   175  ALA175      0.2592
    143  O         15.4740   44.8510   42.7990 O.2   175  ALA175     -0.2718
    144  CB        18.5590   44.9030   43.9620 C.3   175  ALA175      0.0304
    145  N         16.9060   43.5420   41.6540 N.am  176  ASP176     -0.1974
    146  CA        15.8680   42.6090   41.1870 C.3   176  ASP176      0.1709
    147  C         15.7380   41.2950   41.9820 C.2   176  ASP176      0.2293
    148  O         16.5200   41.0290   42.8860 O.2   176  ASP176     -0.2864
    149  CB        16.0900   42.2790   39.7090 C.3   176  ASP176      0.1436
    150  CG        14.8260   42.4480   38.8810 C.2   176  ASP176      0.3671
    151  OD1       13.7310   42.2830   39.4460 O.co2 176  ASP176     -0.2456
    152  OD2       14.9200   42.7370   37.6690 O.co2 176  ASP176     -0.2456
    153  N         16.4280   38.3630   41.0850 N.3   178  ASP178     -0.1225
    154  CA        17.5590   37.4820   40.8210 C.3   178  ASP178      0.1805
    155  C         18.5930   37.5350   41.9250 C.2   178  ASP178      0.2598
    156  O         19.5450   36.7670   41.9220 O.2   178  ASP178     -0.2718
    157  CB        18.2220   37.8380   39.4880 C.3   178  ASP178      0.1424
    158  CG        18.7950   39.2390   39.4750 C.2   178  ASP178      0.3668
    159  OD1       18.1030   40.1780   39.9170 O.co2 178  ASP178     -0.2456
    160  OD2       19.9370   39.4060   39.0070 O.co2 178  ASP178     -0.2456
    161  N         18.4070   38.4340   42.8780 N.am  179  SER179     -0.1952
    162  CA        19.3590   38.5410   43.9590 C.3   179  SER179      0.1924
    163  C         18.7410   38.3960   45.3380 C.2   179  SER179      0.2314
    164  O         19.3590   38.7770   46.3280 O.2   179  SER179     -0.2863
    165  CB        20.1220   39.8650   43.8660 C.3   179  SER179      0.2116
    166  OG        19.2890   40.9750   44.1420 O.3   179  SER179     -0.2180
@<TRIPOS>BOND
     1     9    10    1
     2     3     4    2
     3     3     2    1
     4    10    11    1
     5    10    13    1
     6     1     2    1
     7    16    14    1
     8    11    12    2
     9     2     5    1
    10   152   150   ar
    11    14    13    1
    12    13    15    1
    13     5     6    1
    14   150   151   ar
    15   150   149    1
    16   160   158   ar
    17   158   157    1
    18   158   159   ar
    19   157   154    1
    20    52    51    1
    21   149   146    1
    22     6     7    1
    23     6     8    1
    24    51    48    1
    25    50    49    2
    26    49    48    1
    27    54    53    1
    28    54    55    1
    29   154   153    1
    30   154   155    1
    31    48    47    1
    32   146   145    1
    33   146   147    1
    34    57    55   am
    35    57    58    1
    36    61    58    1
    37    61    62    1
    38    38    37    1
    39   145   142   am
    40    55    56    2
    41   156   155    2
    42   155   161   am
    43   147   148    2
    44    58    59    1
    45    62    63   ar
    46    62    64   ar
    47    63    65   ar
    48    47    41   am
    49    93    94    1
    50    93    90    1
    51   142   143    2
    52   142   141    1
    53    94    95    1
    54    95    96    1
    55    37    34    1
    56   141   140    1
    57   141   144    1
    58   161   162    1
    59   101   100    1
    60   101   102    1
    61    65    66   ar
    62    64    67   ar
    63    64    66   ar
    64   100    91   am
    65    96    97    2
    66    41    42    2
    67    41    40    1
    68    59    60    2
    69    59    71   am
    70    67    69   ar
    71    91    90    1
    72    91    92    2
    73    66    68   ar
    74    90    89    1
    75   165   162    1
    76   165   166    1
    77   162   163    1
    78    34    35    1
    79    34    33    1
    80   103   102    2
    81    36    35    2
    82   123   122    2
    83    35    39   am
    84   102   104   am
    85    39    40    1
    86    69    70   ar
    87    71    72    1
    88    68    70   ar
    89    40    43    1
    90    97    98    1
    91    97    99    1
    92    33    29   am
    93    43    44    1
    94   122   121    1
    95   122   124   am
    96    44    46    1
    97    44    45    1
    98   163   164    2
    99   104   105    1
   100    30    29    2
   101   121   120    1
   102    29    28    1
   103    76    75    1
   104   113   112    1
   105   113   114    1
   106    72    73    1
   107    72    75    1
   108   112   106   am
   109    74    73    2
   110   116   114   am
   111   116   117    1
   112   106   105    1
   113   106   107    2
   114   105   108    1
   115   120   117    1
   116    75    77    1
   117   114   115    2
   118    28    27    1
   119    28    31    1
   120    20    19    2
   121   117   118    1
   122    27    19   am
   123    21    22    1
   124    21    18    1
   125    19    18    1
   126   108   109    1
   127   110   109    1
   128   110   111    1
   129    31    32    1
   130    79    78    1
   131    79    80    1
   132    22    24   ar
   133    22    23   ar
   134    18    17    1
   135   132   130    1
   136    24    26   ar
   137   118   125   am
   138   118   119    2
   139   125   126    1
   140    23    25   ar
   141   130   129    1
   142    80    81    2
   143    26    25   ar
   144   129   126    1
   145   129   131    1
   146   126   127    1
   147    87    86    1
   148    87    88    1
   149   139   137    1
   150   133   127   am
   151   133   134    1
   152   137   134    1
   153   137   138    1
   154   127   128    2
   155    86    83    1
   156   134   135    1
   157    88    82    1
   158    85    84    2
   159   135   136    2
   160    84    83    1
   161    83    82    1
