@<TRIPOS>MOLECULE
tmp/2nyrA00.pdb
 249 240 0 0 0
SMALL
GASTEIGER

@<TRIPOS>ATOM
      1  N          7.7170   -0.9380   15.3690 N.3    24  ALA24      -0.1245
      2  CA         6.6940    0.0320   14.9910 C.3    24  ALA24       0.1562
      3  C          6.3660    1.0690   16.0740 C.2    24  ALA24       0.2260
      4  O          5.8690    2.1510   15.7580 O.2    24  ALA24      -0.2867
      5  CB         5.4170   -0.6980   14.5380 C.3    24  ALA24       0.0290
      6  N          8.0690    4.3490   15.2680 N.3    27  SER27      -0.1217
      7  CA         7.3260    5.0870   14.2510 C.3    27  SER27       0.1889
      8  C          6.0110    5.6860   14.7760 C.2    27  SER27       0.2288
      9  O          5.6680    6.8270   14.4470 O.2    27  SER27      -0.2866
     10  CB         7.0720    4.2040   13.0350 C.3    27  SER27       0.2089
     11  OG         8.2020    4.2170   12.1800 O.3    27  SER27      -0.2183
     12  N          2.8290    8.1750   13.0560 N.3    32  VAL32      -0.1231
     13  CA         2.5880    7.1440   12.0430 C.3    32  VAL32       0.1678
     14  C          1.4770    6.2060   12.5320 C.2    32  VAL32       0.2434
     15  O          1.6140    5.5970   13.5970 O.2    32  VAL32      -0.2733
     16  CB         3.8750    6.3220   11.7440 C.3    32  VAL32       0.0265
     17  CG1        3.5770    5.1260   10.8180 C.3    32  VAL32       0.0020
     18  CG2        4.9510    7.2150   11.1570 C.3    32  VAL32       0.0020
     19  N          0.3660    6.1000   11.7690 N.am   33  PRO33      -0.2718
     20  CA        -0.6760    5.1680   12.1860 C.3    33  PRO33       0.1535
     21  C         -0.2380    3.7260   11.9020 C.2    33  PRO33       0.2599
     22  O         -0.0190    3.3510   10.7410 O.2    33  PRO33      -0.2715
     23  CB        -1.8930    5.5790   11.3370 C.3    33  PRO33       0.0310
     24  CG        -1.4740    6.7940   10.5600 C.3    33  PRO33       0.0237
     25  CD         0.0090    6.7890   10.5180 C.3    33  PRO33       0.0939
     26  N         -0.0660    2.9510   12.9680 N.am   34  THR34      -0.1937
     27  CA         0.4300    1.5800   12.8650 C.3    34  THR34       0.2028
     28  C         -0.5910    0.6970   12.1610 C.2    34  THR34       0.2642
     29  O         -1.7180    0.5240   12.6530 O.2    34  THR34      -0.2714
     30  CB         0.7800    1.0030   14.2510 C.3    34  THR34       0.1808
     31  OG1        1.6910    1.8920   14.9090 O.3    34  THR34      -0.2208
     32  CG2        1.4330   -0.3820   14.1320 C.3    34  THR34       0.0379
     33  N         -0.1910    0.1490   11.0110 N.am   35  PHE35      -0.1959
     34  CA        -1.0890   -0.6760   10.2120 C.3    35  PHE35       0.1771
     35  C         -1.1210   -2.1350   10.6740 C.2    35  PHE35       0.2619
     36  O         -0.8940   -3.0620    9.8850 O.2    35  PHE35      -0.2715
     37  CB        -0.7890   -0.5600    8.7090 C.3    35  PHE35       0.0574
     38  CG        -1.9960   -0.7890    7.8420 C.ar   35  PHE35      -0.0200
     39  CD1       -2.9310    0.2240    7.6500 C.ar   35  PHE35      -0.0042
     40  CD2       -2.2160   -2.0250    7.2380 C.ar   35  PHE35      -0.0042
     41  CE1       -4.0650    0.0110    6.8710 C.ar   35  PHE35      -0.0003
     42  CE2       -3.3480   -2.2450    6.4540 C.ar   35  PHE35      -0.0003
     43  CZ        -4.2710   -1.2240    6.2720 C.ar   35  PHE35      -0.0000
     44  N         -1.4050   -2.3240   11.9600 N.am   36  ARG36      -0.1977
     45  CA        -1.5370   -3.6590   12.5530 C.3    36  ARG36       0.1597
     46  C         -2.6740   -3.6530   13.5680 C.2    36  ARG36       0.2287
     47  O         -3.0180   -2.5990   14.1080 O.2    36  ARG36      -0.2864
     48  CB        -0.2280   -4.0950   13.2220 C.3    36  ARG36       0.0334
     49  CG        -0.0410   -5.6130   13.2950 C.3    36  ARG36       0.0492
     50  CD         1.1290   -6.0320   14.1990 C.3    36  ARG36       0.2205
     51  NE         1.2160   -5.1950   15.3980 N.pl3  36  ARG36      -0.0865
     52  CZ         2.2480   -4.4090   15.6990 C.cat  36  ARG36       0.5346
     53  NH1        3.3200   -4.3670   14.9060 N.pl3  36  ARG36       0.1354
     54  NH2        2.2200   -3.6760   16.8070 N.pl3  36  ARG36       0.1354
     55  N         -4.4440   -5.6350    5.7130 N.3    47  ALA47      -0.1231
     56  CA        -3.1320   -5.6950    5.0700 C.3    47  ALA47       0.1694
     57  C         -2.9870   -6.8800    4.1250 C.2    47  ALA47       0.2591
     58  O         -2.4110   -6.7480    3.0490 O.2    47  ALA47      -0.2718
     59  CB        -2.0300   -5.7160    6.1180 C.3    47  ALA47       0.0304
     60  N         -3.5230   -8.0310    4.5250 N.am   48  GLN48      -0.1979
     61  CA        -3.4330   -9.2590    3.7290 C.3    48  GLN48       0.1601
     62  C         -4.3080   -9.2240    2.4690 C.2    48  GLN48       0.2287
     63  O         -4.2110  -10.1070    1.6160 O.2    48  GLN48      -0.2864
     64  CB        -3.7370  -10.5030    4.5840 C.3    48  GLN48       0.0394
     65  CG        -4.5800  -10.2430    5.8330 C.3    48  GLN48       0.0908
     66  CD        -3.7540   -9.7430    7.0230 C.2    48  GLN48       0.2608
     67  OE1       -4.0490   -8.6930    7.5970 O.2    48  GLN48      -0.2717
     68  NE2       -2.7180  -10.4970    7.3930 N.am   48  GLN48      -0.0878
     69  N         -1.4550   -5.7350    0.8460 N.3    51  ALA51      -0.1245
     70  CA        -0.0050   -5.8830    0.7840 C.3    51  ALA51       0.1562
     71  C          0.4150   -7.2840    0.3510 C.2    51  ALA51       0.2260
     72  O          1.0720   -8.0080    1.1030 O.2    51  ALA51      -0.2867
     73  CB         0.6140   -5.5320    2.1390 C.3    51  ALA51       0.0290
     74  N         -3.9360    2.7490   -1.8960 N.3    66  PHE66      -0.1227
     75  CA        -3.5830    2.5270   -0.4980 C.3    66  PHE66       0.1736
     76  C         -2.1620    2.9790   -0.1580 C.2    66  PHE66       0.2595
     77  O         -1.9500    3.6240    0.8740 O.2    66  PHE66      -0.2718
     78  CB        -3.7930    1.0510   -0.1200 C.3    66  PHE66       0.0547
     79  CG        -3.1740    0.6630    1.1950 C.ar   66  PHE66      -0.0202
     80  CD1       -3.6970    1.1430    2.3960 C.ar   66  PHE66      -0.0042
     81  CD2       -2.0740   -0.1900    1.2360 C.ar   66  PHE66      -0.0042
     82  CE1       -3.1300    0.7870    3.6070 C.ar   66  PHE66      -0.0003
     83  CE2       -1.5000   -0.5580    2.4510 C.ar   66  PHE66      -0.0003
     84  CZ        -2.0310   -0.0690    3.6380 C.ar   66  PHE66      -0.0000
     85  N         -1.1970    2.6450   -1.0160 N.am   67  TYR67      -0.1976
     86  CA         0.1840    3.0520   -0.7760 C.3    67  TYR67       0.1639
     87  C          0.4230    4.5370   -1.0020 C.2    67  TYR67       0.2290
     88  O          1.3080    5.1160   -0.3760 O.2    67  TYR67      -0.2864
     89  CB         1.1870    2.1580   -1.5240 C.3    67  TYR67       0.0560
     90  CG         1.4730    0.9140   -0.7290 C.ar   67  TYR67      -0.0198
     91  CD1        0.8850   -0.3050   -1.0650 C.ar   67  TYR67      -0.0009
     92  CD2        2.2810    0.9680    0.4130 C.ar   67  TYR67      -0.0009
     93  CE1        1.1180   -1.4390   -0.3140 C.ar   67  TYR67       0.0417
     94  CE2        2.5150   -0.1610    1.1730 C.ar   67  TYR67       0.0417
     95  CZ         1.9290   -1.3610    0.8060 C.ar   67  TYR67       0.1957
     96  OH         2.1540   -2.4810    1.5610 O.3    67  TYR67      -0.2866
     97  N         -0.8030    5.8190    2.3290 N.3    70  ARG70      -0.1245
     98  CA         0.3120    5.5720    3.2410 C.3    70  ARG70       0.1563
     99  C          1.4530    6.5730    3.0540 C.2    70  ARG70       0.2260
    100  O          1.9510    7.1160    4.0310 O.2    70  ARG70      -0.2867
    101  CB         0.8260    4.1190    3.1260 C.3    70  ARG70       0.0307
    102  CG        -0.2210    3.0510    3.5250 C.3    70  ARG70       0.0489
    103  CD        -0.6690    3.1650    4.9870 C.3    70  ARG70       0.2205
    104  NE         0.3870    2.7240    5.9080 N.pl3  70  ARG70      -0.0865
    105  CZ         0.3220    2.8120    7.2360 C.cat  70  ARG70       0.5346
    106  NH1       -0.7510    3.3240    7.8340 N.pl3  70  ARG70       0.1354
    107  NH2        1.3380    2.3850    7.9730 N.pl3  70  ARG70       0.1354
    108  N         11.8400   -2.4380   11.0850 N.3   105  GLN105     -0.1231
    109  CA        10.6890   -2.9960   10.3620 C.3   105  GLN105      0.1698
    110  C          9.9210   -1.9070    9.5960 C.2   105  GLN105      0.2592
    111  O          9.0540   -2.1960    8.7620 O.2   105  GLN105     -0.2718
    112  CB         9.7560   -3.7630   11.3150 C.3   105  GLN105      0.0381
    113  CG         8.8170   -2.9060   12.1640 C.3   105  GLN105      0.0905
    114  CD         7.8250   -3.7410   12.9590 C.2   105  GLN105      0.2608
    115  OE1        6.7840   -4.1670   12.4470 O.2   105  GLN105     -0.2717
    116  NE2        8.1410   -3.9730   14.2200 N.am  105  GLN105     -0.0878
    117  N         10.2550   -0.6510    9.8680 N.am  106  ASN106     -0.1960
    118  CA         9.4710    0.4620    9.3600 C.3   106  ASN106      0.1819
    119  C          9.9150    1.0080    8.0100 C.2   106  ASN106      0.2621
    120  O         11.0830    0.9050    7.6250 O.2   106  ASN106     -0.2715
    121  CB         9.3530    1.5500   10.4230 C.3   106  ASN106      0.1195
    122  CG         8.4560    1.1300   11.5560 C.2   106  ASN106      0.2630
    123  OD1        7.2240    1.1050   11.4140 O.2   106  ASN106     -0.2716
    124  ND2        9.0570    0.7790   12.6860 N.am  106  ASN106     -0.0877
    125  N          8.9580    1.5970    7.3020 N.am  107  ILE107     -0.1963
    126  CA         9.1080    1.9010    5.8800 C.3   107  ILE107      0.1727
    127  C          8.9060    3.3890    5.5950 C.2   107  ILE107      0.2616
    128  O          8.7430    3.7890    4.4440 O.2   107  ILE107     -0.2715
    129  CB         8.1470    1.0330    5.0000 C.3   107  ILE107      0.0290
    130  CG1        6.6810    1.2110    5.4300 C.3   107  ILE107      0.0022
    131  CG2        8.5620   -0.4620    5.0190 C.3   107  ILE107      0.0023
    132  CD1        5.6820    0.4950    4.5170 C.3   107  ILE107      0.0001
    133  N          8.9410    4.1910    6.6570 N.am  108  ASP108     -0.1971
    134  CA         8.6900    5.6380    6.6000 C.3   108  ASP108      0.1709
    135  C          9.9540    6.4950    6.5080 C.2   108  ASP108      0.2293
    136  O          9.8700    7.7190    6.3450 O.2   108  ASP108     -0.2864
    137  CB         7.8880    6.0620    7.8320 C.3   108  ASP108      0.1436
    138  CG         8.4380    5.4690    9.1150 C.2   108  ASP108      0.3671
    139  OD1        9.6460    5.6270    9.3910 O.co2 108  ASP108     -0.2456
    140  OD2        7.6510    4.8460    9.8500 O.co2 108  ASP108     -0.2456
    141  N         11.8920   -4.3240    5.4610 N.3   123  HIS123     -0.1241
    142  CA        10.6190   -4.2950    4.7310 C.3   123  HIS123      0.1621
    143  C         10.6490   -3.2750    3.5800 C.2   123  HIS123      0.2264
    144  O          9.6350   -3.0330    2.9190 O.2   123  HIS123     -0.2867
    145  CB         9.4430   -4.0150    5.6840 C.3   123  HIS123      0.0745
    146  CG         9.2170   -5.0870    6.7130 C.ar  123  HIS123      0.0817
    147  ND1        8.8160   -4.8090    8.0030 N.ar  123  HIS123     -0.2268
    148  CD2        9.3450   -6.4350    6.6430 C.ar  123  HIS123      0.1154
    149  CE1        8.6970   -5.9420    8.6780 C.ar  123  HIS123      0.1986
    150  NE2        9.0190   -6.9420    7.8790 N.ar  123  HIS123     -0.2212
    151  N          8.4430    2.9180    1.5330 N.3   126  LEU126     -0.1245
    152  CA         7.3480    3.3100    0.6680 C.3   126  LEU126      0.1561
    153  C          7.7000    4.5660   -0.1410 C.2   126  LEU126      0.2260
    154  O          6.9330    4.9880   -0.9990 O.2   126  LEU126     -0.2867
    155  CB         6.0220    3.3990    1.4390 C.3   126  LEU126      0.0270
    156  CG         5.5550    4.5220    2.3630 C.3   126  LEU126      0.0019
    157  CD1        4.6520    3.9000    3.3920 C.3   126  LEU126      0.0001
    158  CD2        6.6810    5.2380    3.0490 C.3   126  LEU126      0.0001
    159  N          8.3310   -2.4090   -1.1620 N.3   185  VAL185     -0.1245
    160  CA         7.9370   -2.8570    0.1670 C.3   185  VAL185      0.1561
    161  C          7.7920   -4.3870    0.1490 C.2   185  VAL185      0.2260
    162  O          7.2730   -4.9530   -0.8170 O.2   185  VAL185     -0.2867
    163  CB         6.6110   -2.1620    0.6200 C.3   185  VAL185      0.0252
    164  CG1        6.0810   -2.7190    1.9420 C.3   185  VAL185      0.0019
    165  CG2        6.8130   -0.6500    0.7420 C.3   185  VAL185      0.0019
    166  N          3.3560   -9.8250    1.9020 N.3   188  PHE188     -0.1241
    167  CA         3.1020  -11.1960    2.3480 C.3   188  PHE188      0.1605
    168  C          3.4460  -12.2000    1.2430 C.2   188  PHE188      0.2264
    169  O          3.1210  -11.9840    0.0700 O.2   188  PHE188     -0.2867
    170  CB         1.6430  -11.3770    2.7990 C.3   188  PHE188      0.0534
    171  CG         1.2750  -10.5860    4.0330 C.ar  188  PHE188     -0.0203
    172  CD1        1.5790  -11.0660    5.3050 C.ar  188  PHE188     -0.0042
    173  CD2        0.6140   -9.3620    3.9230 C.ar  188  PHE188     -0.0042
    174  CE1        1.2350  -10.3360    6.4470 C.ar  188  PHE188     -0.0003
    175  CE2        0.2670   -8.6270    5.0590 C.ar  188  PHE188     -0.0003
    176  CZ         0.5810   -9.1160    6.3210 C.ar  188  PHE188     -0.0000
    177  N          6.3430  -12.8490    0.0580 N.3   190  GLU190     -0.1231
    178  CA         7.6390  -12.4790   -0.4940 C.3   190  GLU190      0.1699
    179  C          8.6940  -12.5480    0.5970 C.2   190  GLU190      0.2592
    180  O          8.4780  -12.0630    1.7160 O.2   190  GLU190     -0.2718
    181  CB         7.5880  -11.0520   -1.0650 C.3   190  GLU190      0.0402
    182  CG         6.3800  -10.7830   -1.9580 C.3   190  GLU190      0.1161
    183  CD         6.4230   -9.4230   -2.6400 C.2   190  GLU190      0.3649
    184  OE1        6.0160   -9.3510   -3.8180 O.co2 190  GLU190     -0.2457
    185  OE2        6.8580   -8.4320   -2.0110 O.co2 190  GLU190     -0.2457
    186  N          9.8380  -13.1320    0.2720 N.am  191  ASN191     -0.1960
    187  CA        10.9590  -13.1670    1.2010 C.3   191  ASN191      0.1819
    188  C         11.6430  -11.8150    1.3970 C.2   191  ASN191      0.2621
    189  O         11.6240  -10.9510    0.5130 O.2   191  ASN191     -0.2715
    190  CB        11.9830  -14.2270    0.7800 C.3   191  ASN191      0.1195
    191  CG        12.0530  -15.3870    1.7560 C.2   191  ASN191      0.2630
    192  OD1       12.0330  -15.1880    2.9730 O.2   191  ASN191     -0.2716
    193  ND2       12.1480  -16.6050    1.2290 N.am  191  ASN191     -0.0877
    194  N         12.2320  -11.6350    2.5740 N.am  192  LEU192     -0.1977
    195  CA        13.1090  -10.5100    2.8210 C.3   192  LEU192      0.1596
    196  C         14.3540  -10.6600    1.9460 C.2   192  LEU192      0.2287
    197  O         14.7930  -11.7770    1.6830 O.2   192  LEU192     -0.2864
    198  CB        13.4950  -10.4380    4.3060 C.3   192  LEU192      0.0297
    199  CG        12.3990  -10.5040    5.3810 C.3   192  LEU192      0.0022
    200  CD1       13.0230  -10.5710    6.7590 C.3   192  LEU192      0.0001
    201  CD2       11.4410   -9.3330    5.2920 C.3   192  LEU192      0.0001
    202  N         19.3890   -9.7310    4.8860 N.3   197  LEU197     -0.1245
    203  CA        19.4700  -10.7460    5.9440 C.3   197  LEU197      0.1561
    204  C         20.9080  -11.1850    6.2010 C.2   197  LEU197      0.2260
    205  O         21.2840  -11.4120    7.3380 O.2   197  LEU197     -0.2867
    206  CB        18.5660  -11.9510    5.6430 C.3   197  LEU197      0.0270
    207  CG        17.0520  -11.7250    5.7890 C.3   197  LEU197      0.0019
    208  CD1       16.2890  -13.0210    5.6060 C.3   197  LEU197      0.0001
    209  CD2       16.7000  -11.0870    7.1350 C.3   197  LEU197      0.0001
    210  N          7.4310  -10.9300   15.8430 N.3   220  TYR220     -0.1241
    211  CA         8.0830  -10.5980   14.5640 C.3   220  TYR220      0.1605
    212  C          8.2050   -9.0730   14.4000 C.2   220  TYR220      0.2264
    213  O          7.2410   -8.3530   14.6520 O.2   220  TYR220     -0.2867
    214  CB         7.3030  -11.2160   13.3860 C.3   220  TYR220      0.0534
    215  CG         7.8190  -10.8240   12.0110 C.ar  220  TYR220     -0.0201
    216  CD1        8.7480  -11.6150   11.3410 C.ar  220  TYR220     -0.0009
    217  CD2        7.3740   -9.6620   11.3850 C.ar  220  TYR220     -0.0009
    218  CE1        9.2240  -11.2550   10.0850 C.ar  220  TYR220      0.0417
    219  CE2        7.8400   -9.2930   10.1360 C.ar  220  TYR220      0.0417
    220  CZ         8.7640  -10.0930    9.4910 C.ar  220  TYR220      0.1957
    221  OH         9.2280   -9.7250    8.2540 O.3   220  TYR220     -0.2866
    222  N         13.1510  -12.7940   15.3570 N.3   224  MET224     -0.1230
    223  CA        14.1120  -13.4000   14.4350 C.3   224  MET224      0.1702
    224  C         15.5630  -13.2230   14.8910 C.2   224  MET224      0.2592
    225  O         16.4180  -14.0480   14.5730 O.2   224  MET224     -0.2718
    226  CB        13.9650  -12.8100   13.0250 C.3   224  MET224      0.0401
    227  CG        12.7350  -13.2560   12.2730 C.3   224  MET224      0.0596
    228  SD        12.4900  -12.4980   10.6530 S.3   224  MET224     -0.1393
    229  CE        13.9970  -12.9060    9.7750 C.3   224  MET224      0.0692
    230  N         15.8430  -12.1440   15.6180 N.am  225  PHE225     -0.1976
    231  CA        17.2260  -11.7020   15.8140 C.3   225  PHE225      0.1639
    232  C         17.7260  -11.7350   17.2600 C.2   225  PHE225      0.2290
    233  O         18.8450  -12.1840   17.5260 O.2   225  PHE225     -0.2864
    234  CB        17.4090  -10.2910   15.2390 C.3   225  PHE225      0.0560
    235  CG        16.8370  -10.1120   13.8600 C.ar  225  PHE225     -0.0200
    236  CD1       17.2060  -10.9610   12.8130 C.ar  225  PHE225     -0.0042
    237  CD2       15.9310   -9.0850   13.6010 C.ar  225  PHE225     -0.0042
    238  CE1       16.6680  -10.7960   11.5350 C.ar  225  PHE225     -0.0003
    239  CE2       15.4000   -8.9040   12.3230 C.ar  225  PHE225     -0.0003
    240  CZ        15.7690   -9.7650   11.2900 C.ar  225  PHE225     -0.0000
    241  N         19.0850  -15.2070   19.2980 N.3   228  GLN228     -0.1245
    242  CA        20.4300  -15.7380   19.0280 C.3   228  GLN228      0.1566
    243  C         21.5560  -14.8750   19.5930 C.2   228  GLN228      0.2260
    244  O         22.6330  -15.3890   19.8830 O.2   228  GLN228     -0.2867
    245  CB        20.6720  -16.0280   17.5440 C.3   228  GLN228      0.0367
    246  CG        20.3330  -14.8930   16.5920 C.3   228  GLN228      0.0905
    247  CD        18.9490  -15.0530   16.0090 C.2   228  GLN228      0.2608
    248  OE1       17.9500  -15.0070   16.7300 O.2   228  GLN228     -0.2717
    249  NE2       18.8800  -15.2620   14.6940 N.am  228  GLN228     -0.0878
@<TRIPOS>BOND
     1   184   183   ar
     2   183   185   ar
     3   183   182    1
     4   182   181    1
     5    74    75    1
     6    89    86    1
     7    89    90    1
     8   159   160    1
     9   181   178    1
    10    91    90   ar
    11    91    93   ar
    12    85    86    1
    13    85    76   am
    14    87    86    1
    15    87    88    2
    16   154   153    2
    17   162   161    2
    18    90    92   ar
    19    75    76    1
    20    75    78    1
    21   178   177    1
    22   178   179    1
    23    93    95   ar
    24    76    77    2
    25   153   152    1
    26    78    79    1
    27   169   168    2
    28   161   160    1
    29   160   163    1
    30   186   179   am
    31   186   187    1
    32    71    70    1
    33    71    72    2
    34    92    94   ar
    35   189   188    2
    36   179   180    2
    37   163   165    1
    38   163   164    1
    39   152   155    1
    40   152   151    1
    41   190   187    1
    42   190   191    1
    43    70    69    1
    44    70    73    1
    45    95    94   ar
    46    95    96    1
    47    79    81   ar
    48    79    80   ar
    49   187   188    1
    50   193   191   am
    51    81    83   ar
    52   168   167    1
    53   188   194   am
    54   155   156    1
    55    63    62    2
    56   197   196    2
    57   191   192    2
    58   166   167    1
    59   196   195    1
    60    97    98    1
    61   167   170    1
    62   156   158    1
    63   156   157    1
    64    80    82   ar
    65    83    84   ar
    66    62    61    1
    67   194   195    1
    68   170   171    1
    69   195   198    1
    70   144   143    2
    71    58    57    2
    72    99    98    1
    73    99   100    2
    74   101    98    1
    75   101   102    1
    76   102   103    1
    77   143   142    1
    78    82    84   ar
    79    61    60    1
    80    61    64    1
    81   173   171   ar
    82   173   175   ar
    83   171   172   ar
    84    57    60   am
    85    57    56    1
    86   198   199    1
    87   128   127    2
    88   132   130    1
    89    64    65    1
    90   142   141    1
    91   142   145    1
    92   202   203    1
    93   103   104    1
    94   129   131    1
    95   129   130    1
    96   129   126    1
    97   175   176   ar
    98    56    55    1
    99    56    59    1
   100   201   199    1
   101   172   174   ar
   102   199   200    1
   103   127   126    1
   104   127   133   am
   105   208   207    1
   106   206   207    1
   107   206   203    1
   108   145   146    1
   109   207   209    1
   110    65    66    1
   111   126   125    1
   112   104   105    2
   113   203   204    1
   114   204   205    2
   115    43    42   ar
   116    43    41   ar
   117   176   174   ar
   118   136   135    2
   119    42    40   ar
   120   135   134    1
   121   134   133    1
   122   134   137    1
   123   148   146   ar
   124   148   150   ar
   125   146   147   ar
   126    41    39   ar
   127    66    68   am
   128    66    67    2
   129   105   106    1
   130   105   107    1
   131    40    38   ar
   132   125   119   am
   133   120   119    2
   134    39    38   ar
   135   137   138    1
   136    38    37    1
   137   150   149   ar
   138   147   149   ar
   139   119   118    1
   140   221   220    1
   141    37    34    1
   142   111   110    2
   143   138   139   ar
   144   138   140   ar
   145   118   117    1
   146   118   121    1
   147   220   218   ar
   148   220   219   ar
   149   110   117   am
   150   110   109    1
   151   229   228    1
   152    36    35    2
   153   218   216   ar
   154   219   217   ar
   155    34    35    1
   156    34    33    1
   157   109   108    1
   158   109   112    1
   159   121   122    1
   160    25    24    1
   161    25    19    1
   162    24    23    1
   163   228   227    1
   164    35    44   am
   165    22    21    2
   166    17    16    1
   167    33    28   am
   168    18    16    1
   169   240   238   ar
   170   240   239   ar
   171   112   113    1
   172    23    20    1
   173   216   215   ar
   174   217   215   ar
   175   123   122    2
   176   238   236   ar
   177   122   124   am
   178    16    13    1
   179    19    20    1
   180    19    14   am
   181    21    20    1
   182    21    26   am
   183    44    45    1
   184   215   214    1
   185    13    14    1
   186    13    12    1
   187    28    29    2
   188    28    27    1
   189   113   114    1
   190    11    10    1
   191   227   226    1
   192   239   237   ar
   193   115   114    2
   194    14    15    2
   195    45    48    1
   196    45    46    1
   197   236   235   ar
   198    27    26    1
   199    27    30    1
   200   114   116   am
   201   226   223    1
   202    10     7    1
   203    48    49    1
   204    49    50    1
   205   214   211    1
   206    46    47    2
   207   237   235   ar
   208   235   234    1
   209    32    30    1
   210    50    51    1
   211     7     8    1
   212     7     6    1
   213    30    31    1
   214   212   211    1
   215   212   213    2
   216   223   224    1
   217   223   222    1
   218     9     8    2
   219     5     2    1
   220   211   210    1
   221   225   224    2
   222   249   247   am
   223   224   230   am
   224    53    52    1
   225     2     1    1
   226     2     3    1
   227   234   231    1
   228    51    52    2
   229   230   231    1
   230    52    54    1
   231     4     3    2
   232   231   232    1
   233   247   246    1
   234   247   248    2
   235   246   245    1
   236   232   233    2
   237   245   242    1
   238   242   241    1
   239   242   243    1
   240   243   244    2
