@<TRIPOS>MOLECULE
tmp/2nyuB00.pdb
 167 162 0 0 0
SMALL
GASTEIGER

@<TRIPOS>ATOM
      1  N         21.8800   29.6750   -4.2650 N.3     4  SER4       -0.1217
      2  CA        22.0450   28.2460   -4.4440 C.3     4  SER4        0.1889
      3  C         20.9720   27.7230   -5.4150 C.2     4  SER4        0.2288
      4  O         19.8860   28.3060   -5.5520 O.2     4  SER4       -0.2866
      5  CB        21.9240   27.5140   -3.0820 C.3     4  SER4        0.2089
      6  OG        21.9870   26.0990   -3.2280 O.3     4  SER4       -0.2183
      7  N         19.1150   25.2690   -4.7110 N.3     6  SER6       -0.1217
      8  CA        17.9760   24.8230   -3.9080 C.3     6  SER6        0.1889
      9  C         16.7470   25.6780   -4.1980 C.2     6  SER6        0.2288
     10  O         15.6380   25.1670   -4.2220 O.2     6  SER6       -0.2866
     11  CB        18.3030   24.8940   -2.4120 C.3     6  SER6        0.2089
     12  OG        19.5830   24.3710   -2.1670 O.3     6  SER6       -0.2183
     13  N         12.6950   29.3210    8.4830 N.3    28  ASP28      -0.1239
     14  CA        13.4400   28.5730    7.4640 C.3    28  ASP28       0.1674
     15  C         14.6400   27.9860    8.1850 C.2    28  ASP28       0.2266
     16  O         15.5920   28.7050    8.5100 O.2    28  ASP28      -0.2867
     17  CB        13.9190   29.5320    6.3810 C.3    28  ASP28       0.1410
     18  CG        14.7110   28.8230    5.2550 C.2    28  ASP28       0.3668
     19  OD1       14.5490   27.5990    5.1060 O.co2  28  ASP28      -0.2456
     20  OD2       15.5400   29.4880    4.6090 O.co2  28  ASP28      -0.2456
     21  N         17.9320   25.6090    8.5990 N.3    30  GLY30      -0.1210
     22  CA        19.0680   25.2550    7.7340 C.3    30  GLY30       0.1956
     23  C         19.1020   26.2210    6.5740 C.2    30  GLY30       0.2612
     24  O         19.1990   25.7970    5.4410 O.2    30  GLY30      -0.2717
     25  N         19.0220   27.5260    6.8780 N.am   31  ALA31      -0.1965
     26  CA        18.8460   28.5220    5.8780 C.3    31  ALA31       0.1728
     27  C         20.0880   28.8420    5.0560 C.2    31  ALA31       0.2616
     28  O         19.9590   29.3930    3.9490 O.2    31  ALA31      -0.2715
     29  CB        18.2880   29.8410    6.4780 C.3    31  ALA31       0.0334
     30  N         21.2730   28.5370    5.5520 N.am   32  ALA32      -0.1964
     31  CA        22.4940   28.9800    4.8290 C.3    32  ALA32       0.1713
     32  C         22.6650   28.1770    3.4890 C.2    32  ALA32       0.2458
     33  O         22.4700   26.9340    3.5010 O.2    32  ALA32      -0.2730
     34  CB        23.7510   28.7840    5.7380 C.3    32  ALA32       0.0333
     35  N         23.1720   28.8300    2.4120 N.am   33  PRO33      -0.2716
     36  CA        23.5790   30.2670    2.3020 C.3    33  PRO33       0.1536
     37  C         22.4260   31.2550    2.2330 C.2    33  PRO33       0.2599
     38  O         22.6130   32.4330    2.5200 O.2    33  PRO33      -0.2715
     39  CB        24.3860   30.3070    0.9950 C.3    33  PRO33       0.0310
     40  CG        23.7920   29.1830    0.1440 C.3    33  PRO33       0.0237
     41  CD        23.4330   28.0840    1.1560 C.3    33  PRO33       0.0939
     42  N         21.2310   30.7680    1.9110 N.am   34  GLY34      -0.1941
     43  CA        20.0120   31.5990    2.0070 C.3    34  GLY34       0.2014
     44  C         19.0540   31.6610    0.8200 C.2    34  GLY34       0.2639
     45  O         18.1800   32.5720    0.7810 O.2    34  GLY34      -0.2714
     46  N         19.1280   30.6710   -0.0830 N.am   35  ALA35      -0.1963
     47  CA        18.2540   30.6240   -1.2950 C.3    35  ALA35       0.1728
     48  C         16.7670   30.4170   -0.9790 C.2    35  ALA35       0.2616
     49  O         15.9460   31.1550   -1.4760 O.2    35  ALA35      -0.2715
     50  CB        18.7550   29.5800   -2.3320 C.3    35  ALA35       0.0334
     51  N         16.4350   29.5050   -0.0530 N.am   36  TRP36      -0.1974
     52  CA        15.0410   29.3300    0.3050 C.3    36  TRP36       0.1640
     53  C         14.5210   30.6130    0.9800 C.2    36  TRP36       0.2290
     54  O         13.3330   31.0200    0.8090 O.2    36  TRP36      -0.2864
     55  CB        14.9020   28.1480    1.2470 C.3    36  TRP36       0.0576
     56  CG        14.8220   26.8170    0.5540 C.ar   36  TRP36       0.0006
     57  CD1       15.2930   26.4880   -0.7090 C.ar   36  TRP36       0.0946
     58  CD2       14.2450   25.6370    1.0810 C.ar   36  TRP36       0.0152
     59  NE1       15.0510   25.1360   -0.9760 N.ar   36  TRP36      -0.2442
     60  CE2       14.3610   24.6120    0.0880 C.ar   36  TRP36       0.0810
     61  CE3       13.5780   25.3410    2.2800 C.ar   36  TRP36       0.0012
     62  CZ2       13.8720   23.2970    0.2880 C.ar   36  TRP36       0.0191
     63  CZ3       13.0900   24.0450    2.4690 C.ar   36  TRP36       0.0001
     64  CH2       13.2460   23.0350    1.4780 C.ar   36  TRP36       0.0015
     65  N         17.4900   30.2080   10.1770 N.3    61  VAL61      -0.1231
     66  CA        18.3990   29.8170   11.2600 C.3    61  VAL61       0.1692
     67  C         19.3910   28.8220   10.7020 C.2    61  VAL61       0.2592
     68  O         18.9950   27.9280    9.9200 O.2    61  VAL61      -0.2718
     69  CB        17.6330   29.1650   12.3890 C.3    61  VAL61       0.0266
     70  CG1       18.5330   28.9100   13.5690 C.3    61  VAL61       0.0020
     71  CG2       16.3220   30.0070   12.8130 C.3    61  VAL61       0.0020
     72  N         20.6910   28.9480   11.0380 N.am   62  ASP62      -0.1960
     73  CA        21.6230   27.9280   10.5770 C.3    62  ASP62       0.1840
     74  C         22.8220   27.8440   11.5110 C.2    62  ASP62       0.2622
     75  O         23.1150   28.8020   12.1820 O.2    62  ASP62      -0.2715
     76  CB        22.1330   28.2480    9.1660 C.3    62  ASP62       0.1450
     77  CG        22.6540   27.0190    8.4160 C.2    62  ASP62       0.3671
     78  OD1       23.7200   26.4190    8.8010 O.co2  62  ASP62      -0.2456
     79  OD2       22.0250   26.6730    7.3880 O.co2  62  ASP62      -0.2456
     80  N         23.4200   26.6640   11.5920 N.am   63  LEU63      -0.1963
     81  CA        24.7470   26.5090   12.2410 C.3    63  LEU63       0.1728
     82  C         25.8220   27.4500   11.6840 C.2    63  LEU63       0.2616
     83  O         26.8110   27.8020   12.3860 O.2    63  LEU63      -0.2715
     84  CB        25.2610   25.0510   12.1500 C.3    63  LEU63       0.0311
     85  CG        24.3410   23.9930   12.7550 C.3    63  LEU63       0.0022
     86  CD1       24.9850   22.6520   12.3780 C.3    63  LEU63       0.0001
     87  CD2       24.2270   24.1640   14.2830 C.3    63  LEU63       0.0001
     88  N         25.7140   27.7350   10.3800 N.am   64  LEU64      -0.1977
     89  CA        26.7220   28.4850    9.6280 C.3    64  LEU64       0.1596
     90  C         26.2580   29.9420    9.3890 C.2    64  LEU64       0.2287
     91  O         25.0440   30.2370    9.3670 O.2    64  LEU64      -0.2864
     92  CB        26.9490   27.8050    8.2570 C.3    64  LEU64       0.0297
     93  CG        27.2920   26.3060    8.2560 C.3    64  LEU64       0.0022
     94  CD1       27.4340   25.7520    6.7790 C.3    64  LEU64       0.0001
     95  CD2       28.5140   26.0710    9.0510 C.3    64  LEU64       0.0001
     96  N         23.4550   29.0270   15.0600 N.3    78  ALA78      -0.1231
     97  CA        22.3250   28.5670   15.8840 C.3    78  ALA78       0.1694
     98  C         21.8940   27.1680   15.4800 C.2    78  ALA78       0.2592
     99  O         21.5890   26.9180   14.2900 O.2    78  ALA78      -0.2718
    100  CB        21.1300   29.5420   15.7830 C.3    78  ALA78       0.0304
    101  N         21.9330   26.2570   16.4590 N.am   79  ASP79      -0.1960
    102  CA        21.4840   24.8710   16.3200 C.3    79  ASP79       0.1840
    103  C         19.9510   24.8010   16.5430 C.2    79  ASP79       0.2622
    104  O         19.4650   25.0370   17.6460 O.2    79  ASP79      -0.2715
    105  CB        22.2630   23.9910   17.3260 C.3    79  ASP79       0.1450
    106  CG        21.8000   22.5130   17.3350 C.2    79  ASP79       0.3671
    107  OD1       20.9010   22.1730   16.5770 O.co2  79  ASP79      -0.2456
    108  OD2       22.3260   21.7010   18.1730 O.co2  79  ASP79      -0.2456
    109  N         19.1930   24.5710   15.4590 N.am   80  VAL80      -0.1963
    110  CA        17.7360   24.5190   15.5500 C.3    80  VAL80       0.1727
    111  C         17.2670   23.5520   16.6630 C.2    80  VAL80       0.2616
    112  O         16.1320   23.6930   17.2110 O.2    80  VAL80      -0.2715
    113  CB        17.1020   24.1880   14.1630 C.3    80  VAL80       0.0290
    114  CG1       15.6050   23.9370   14.3000 C.3    80  VAL80       0.0023
    115  CG2       17.3310   25.3700   13.2240 C.3    80  VAL80       0.0023
    116  N         18.1260   22.5710   16.9970 N.am   81  THR81      -0.1951
    117  CA        17.7540   21.4950   17.9300 C.3    81  THR81       0.1897
    118  C         18.1240   21.8440   19.3860 C.2    81  THR81       0.2313
    119  O         17.9050   21.0490   20.3090 O.2    81  THR81      -0.2863
    120  CB        18.3970   20.1200   17.5460 C.3    81  THR81       0.1794
    121  OG1       19.8000   20.1080   17.8910 O.3    81  THR81      -0.2208
    122  CG2       18.2040   19.7940   16.0570 C.3    81  THR81       0.0378
    123  N         15.3600   22.7280    5.2780 N.3   104  ASP104     -0.1225
    124  CA        16.2680   22.0540    4.3270 C.3   104  ASP104      0.1805
    125  C         17.5490   21.6250    5.0490 C.2   104  ASP104      0.2598
    126  O         18.5980   21.5350    4.4500 O.2   104  ASP104     -0.2718
    127  CB        16.5930   23.0000    3.1810 C.3   104  ASP104      0.1424
    128  CG        17.2160   22.2860    1.9550 C.2   104  ASP104      0.3668
    129  OD1       16.9300   21.1070    1.7150 O.co2 104  ASP104     -0.2456
    130  OD2       17.9680   22.9390    1.2500 O.co2 104  ASP104     -0.2456
    131  N         17.4520   21.3940    6.3650 N.am  105  MET105     -0.1965
    132  CA        18.5950   20.9980    7.1600 C.3   105  MET105      0.1736
    133  C         19.0910   19.6230    6.7240 C.2   105  MET105      0.2616
    134  O         18.2970   18.7900    6.3020 O.2   105  MET105     -0.2715
    135  CB        18.2010   20.9140    8.6460 C.3   105  MET105      0.0427
    136  CG        17.8190   22.2740    9.3050 C.3   105  MET105      0.0599
    137  SD        17.5970   22.0100   11.1050 S.3   105  MET105     -0.1393
    138  CE        15.9840   21.1720   11.0980 C.3   105  MET105      0.0692
    139  N         20.3950   19.4060    6.8070 N.am  106  ALA106     -0.1964
    140  CA        20.9540   18.0720    6.5470 C.3   106  ALA106      0.1713
    141  C         22.2210   17.9470    7.3610 C.2   106  ALA106      0.2458
    142  O         22.9450   18.9530    7.5780 O.2   106  ALA106     -0.2730
    143  CB        21.2590   17.9130    5.1040 C.3   106  ALA106      0.0333
    144  N         22.4940   16.7310    7.8400 N.am  107  PRO107     -0.2727
    145  CA        23.7480   16.4840    8.5360 C.3   107  PRO107      0.1402
    146  C         24.8850   16.5070    7.5830 C.2   107  PRO107      0.2269
    147  O         24.6900   16.4080    6.3420 O.2   107  PRO107     -0.2865
    148  CB        23.5720   15.0450    9.0860 C.3   107  PRO107      0.0296
    149  CG        22.5400   14.3990    8.1540 C.3   107  PRO107      0.0237
    150  CD        21.6430   15.5140    7.7210 C.3   107  PRO107      0.0939
    151  N         16.6030   14.4500   12.6950 N.3   123  LEU123     -0.1245
    152  CA        16.6090   15.9040   12.7190 C.3   123  LEU123      0.1561
    153  C         15.1880   16.4250   12.5090 C.2   123  LEU123      0.2260
    154  O         14.7460   17.3440   13.1980 O.2   123  LEU123     -0.2867
    155  CB        17.4480   16.4310   11.5960 C.3   123  LEU123      0.0270
    156  CG        18.5710   17.3960   11.9580 C.3   123  LEU123      0.0019
    157  CD1       19.1790   17.9750   10.6940 C.3   123  LEU123      0.0001
    158  CD2       18.1220   18.4790   12.9350 C.3   123  LEU123      0.0001
    159  N         12.9180   18.4950    4.2630 N.3   144  LYS144     -0.1245
    160  CA        13.6630   17.6880    3.3370 C.3   144  LYS144      0.1561
    161  C         14.0520   16.3530    4.0010 C.2   144  LYS144      0.2260
    162  O         14.4330   16.3290    5.1790 O.2   144  LYS144     -0.2867
    163  CB        14.9410   18.4220    2.9190 C.3   144  LYS144      0.0271
    164  CG        16.1750   17.8370    3.5750 C.3   144  LYS144      0.0035
    165  CD        17.3380   17.6730    2.6030 C.3   144  LYS144      0.0206
    166  CE        18.2890   18.8180    2.7520 C.3   144  LYS144      0.1093
    167  NZ        19.1490   19.0330    1.5440 N.3   144  LYS144     -0.1314
@<TRIPOS>BOND
     1     4     3    2
     2     3     2    1
     3     7     8    1
     4     2     1    1
     5     2     5    1
     6    10     9    2
     7     9     8    1
     8     8    11    1
     9     6     5    1
    10    11    12    1
    11    50    47    1
    12    49    48    2
    13    47    48    1
    14    47    46    1
    15    48    51   am
    16    59    57   ar
    17    59    60   ar
    18    57    56   ar
    19    46    44   am
    20    51    52    1
    21    60    62   ar
    22    60    58   ar
    23    40    39    1
    24    40    41    1
    25    62    64   ar
    26    52    53    1
    27    52    55    1
    28    56    58   ar
    29    56    55    1
    30    45    44    2
    31    54    53    2
    32    44    43    1
    33    39    36    1
    34    58    61   ar
    35    41    35    1
    36   130   128   ar
    37    64    63   ar
    38   167   166    1
    39   129   128   ar
    40    42    43    1
    41    42    37   am
    42   128   127    1
    43    37    36    1
    44    37    38    2
    45    61    63   ar
    46    36    35    1
    47    35    32   am
    48   165   166    1
    49   165   164    1
    50   163   160    1
    51   163   164    1
    52   127   124    1
    53   160   161    1
    54   160   159    1
    55    32    33    2
    56    32    31    1
    57    28    27    2
    58   161   162    2
    59   124   125    1
    60   124   123    1
    61   126   125    2
    62    20    18   ar
    63    31    30    1
    64    31    34    1
    65   125   131   am
    66    27    30   am
    67    27    26    1
    68   143   140    1
    69    19    18   ar
    70    18    17    1
    71    24    23    2
    72    26    29    1
    73    26    25    1
    74   134   133    2
    75   147   146    2
    76   131   132    1
    77    17    14    1
    78   140   139    1
    79   140   141    1
    80    23    25   am
    81    23    22    1
    82   133   139   am
    83   133   132    1
    84    94    93    1
    85   132   135    1
    86   141   142    2
    87   141   144   am
    88    79    77   ar
    89    14    15    1
    90    14    13    1
    91   146   145    1
    92   150   144    1
    93   150   149    1
    94    22    21    1
    95   144   145    1
    96   149   148    1
    97    15    16    2
    98    93    92    1
    99    93    95    1
   100    92    89    1
   101    77    78   ar
   102    77    76    1
   103   145   148    1
   104   135   136    1
   105    76    73    1
   106   136   137    1
   107    91    90    2
   108    90    89    1
   109    89    88    1
   110    68    67    2
   111    65    66    1
   112    88    82   am
   113    73    72    1
   114    73    74    1
   115   157   156    1
   116    67    72   am
   117    67    66    1
   118   138   137    1
   119    66    69    1
   120    74    80   am
   121    74    75    2
   122    80    81    1
   123   155   156    1
   124   155   152    1
   125    82    81    1
   126    82    83    2
   127   156   158    1
   128    84    81    1
   129    84    85    1
   130    86    85    1
   131    69    71    1
   132    69    70    1
   133   153   152    1
   134   153   154    2
   135   151   152    1
   136    85    87    1
   137   115   113    1
   138   113   114    1
   139   113   110    1
   140    99    98    2
   141    96    97    1
   142   109   110    1
   143   109   103   am
   144    98    97    1
   145    98   101   am
   146   110   111    1
   147   100    97    1
   148   122   120    1
   149   102   101    1
   150   102   103    1
   151   102   105    1
   152   103   104    2
   153   107   106   ar
   154   111   116   am
   155   111   112    2
   156   116   117    1
   157   105   106    1
   158   106   108   ar
   159   120   121    1
   160   120   117    1
   161   117   118    1
   162   118   119    2
