@<TRIPOS>MOLECULE
tmp/2nz2A00.pdb
 106 98 0 0 0
SMALL
GASTEIGER

@<TRIPOS>ATOM
      1  N          5.0510   41.9900   23.7140 N.3    92  ARG92      -0.1245
      2  CA         3.8580   42.0440   24.5770 C.3    92  ARG92       0.1563
      3  C          3.8870   43.1060   25.6640 C.2    92  ARG92       0.2260
      4  O          2.8780   43.7750   25.8340 O.2    92  ARG92      -0.2867
      5  CB         3.4940   40.6700   25.1670 C.3    92  ARG92       0.0307
      6  CG         3.3860   39.5320   24.1430 C.3    92  ARG92       0.0489
      7  CD         2.6310   39.9550   22.8690 C.3    92  ARG92       0.2205
      8  NE         2.3230   38.8590   21.9570 N.pl3  92  ARG92      -0.0865
      9  CZ         1.6560   39.0040   20.8070 C.cat  92  ARG92       0.5346
     10  NH1        1.2510   40.2010   20.4030 N.pl3  92  ARG92       0.1354
     11  NH2        1.3890   37.9470   20.0530 N.pl3  92  ARG92       0.1354
     12  N         -5.7860   36.4970   23.1350 N.3   115  ALA115     -0.1231
     13  CA        -4.8810   35.3650   23.3600 C.3   115  ALA115      0.1694
     14  C         -5.6390   34.1240   23.8450 C.2   115  ALA115      0.2592
     15  O         -6.6180   34.2460   24.5970 O.2   115  ALA115     -0.2718
     16  CB        -3.8050   35.7500   24.3660 C.3   115  ALA115      0.0304
     17  N         -5.1920   32.9450   23.4090 N.am  116  THR116     -0.1953
     18  CA        -5.8430   31.6770   23.7920 C.3   116  THR116      0.1897
     19  C         -5.4650   31.2050   25.2090 C.2   116  THR116      0.2313
     20  O         -4.4970   31.7010   25.8030 O.2   116  THR116     -0.2863
     21  CB        -5.5810   30.5160   22.7690 C.3   116  THR116      0.1794
     22  OG1       -4.3200   29.8820   23.0340 O.3   116  THR116     -0.2208
     23  CG2       -5.6170   31.0040   21.3330 C.3   116  THR116      0.0378
     24  N         -4.2250   28.4760   26.3090 N.3   118  LYS118     -0.1231
     25  CA        -3.0950   27.5660   26.3710 C.3   118  LYS118      0.1693
     26  C         -1.7800   28.2610   25.9940 C.2   118  LYS118      0.2593
     27  O         -0.7280   27.6130   25.9310 O.2   118  LYS118     -0.2718
     28  CB        -3.3290   26.4190   25.3980 C.3   118  LYS118      0.0285
     29  CG        -4.6220   25.6400   25.6360 C.3   118  LYS118      0.0035
     30  CD        -4.9300   24.7050   24.4740 C.3   118  LYS118      0.0206
     31  CE        -5.7540   23.5120   24.9460 C.3   118  LYS118      0.1093
     32  NZ        -5.8830   22.4840   23.8670 N.3   118  LYS118     -0.1314
     33  N         -1.8310   29.5700   25.7520 N.am  119  GLY119     -0.1942
     34  CA        -0.6440   30.3250   25.3620 C.3   119  GLY119      0.2014
     35  C          0.2070   31.0090   26.4210 C.2   119  GLY119      0.2639
     36  O         -0.0700   30.9740   27.6440 O.2   119  GLY119     -0.2714
     37  N          1.2950   31.6030   25.9230 N.am  120  ASN120     -0.1958
     38  CA         2.1990   32.4610   26.6990 C.3   120  ASN120      0.1819
     39  C          1.7130   33.8840   26.7350 C.2   120  ASN120      0.2621
     40  O          1.8510   34.5540   27.7530 O.2   120  ASN120     -0.2715
     41  CB         3.5750   32.4730   26.0690 C.3   120  ASN120      0.1195
     42  CG         4.3210   31.1940   26.2920 C.2   120  ASN120      0.2630
     43  OD1        4.2340   30.5890   27.3710 O.2   120  ASN120     -0.2716
     44  ND2        5.0700   30.7660   25.2770 N.am  120  ASN120     -0.0877
     45  N          1.1400   34.3550   25.6310 N.am  121  ASP121     -0.1957
     46  CA         0.8040   35.7770   25.4920 C.3   121  ASP121      0.1840
     47  C         -0.2560   36.2600   26.4730 C.2   121  ASP121      0.2621
     48  O         -0.1960   37.4200   26.9130 O.2   121  ASP121     -0.2715
     49  CB         0.3720   36.1220   24.0650 C.3   121  ASP121      0.1450
     50  CG         1.5200   36.0420   23.0520 C.2   121  ASP121      0.3671
     51  OD1        2.6920   36.3190   23.3890 O.co2 121  ASP121     -0.2456
     52  OD2        1.2320   35.7310   21.8800 O.co2 121  ASP121     -0.2456
     53  N         -1.2060   35.3910   26.8260 N.am  122  GLN122     -0.1977
     54  CA        -2.2370   35.7510   27.8050 C.3   122  GLN122      0.1601
     55  C         -1.5650   36.2240   29.0760 C.2   122  GLN122      0.2287
     56  O         -1.9540   37.2340   29.6550 O.2   122  GLN122     -0.2864
     57  CB        -3.2000   34.5680   28.0960 C.3   122  GLN122      0.0394
     58  CG        -2.4880   33.2190   28.2910 C.3   122  GLN122      0.0908
     59  CD        -3.3620   32.0850   28.7750 C.2   122  GLN122      0.2608
     60  OE1       -4.5170   32.2680   29.1560 O.2   122  GLN122     -0.2717
     61  NE2       -2.8000   30.8870   28.7630 N.am  122  GLN122     -0.0878
     62  N          1.6130   37.2490   29.4190 N.3   124  ARG124     -0.1245
     63  CA         2.4830   38.4050   29.2410 C.3   124  ARG124      0.1563
     64  C          1.6960   39.7070   29.3100 C.2   124  ARG124      0.2260
     65  O          2.0890   40.6200   30.0310 O.2   124  ARG124     -0.2867
     66  CB         3.3060   38.2770   27.9450 C.3   124  ARG124      0.0307
     67  CG         4.1080   36.9810   27.8700 C.3   124  ARG124      0.0489
     68  CD         4.6460   36.7200   26.4470 C.3   124  ARG124      0.2205
     69  NE         5.6390   35.6430   26.4040 N.pl3 124  ARG124     -0.0865
     70  CZ         5.9310   34.9390   25.3170 C.cat 124  ARG124      0.5346
     71  NH1        5.3190   35.1680   24.1630 N.pl3 124  ARG124      0.1354
     72  NH2        6.8250   33.9890   25.3780 N.pl3 124  ARG124      0.1354
     73  N         -1.4140   29.7140   12.4290 N.3   176  SER176     -0.1217
     74  CA        -1.5070   31.1030   12.8810 C.3   176  SER176      0.1889
     75  C         -0.1440   31.7920   12.8120 C.2   176  SER176      0.2288
     76  O          0.8920   31.1410   12.9830 O.2   176  SER176     -0.2866
     77  CB        -2.0910   31.1920   14.3070 C.3   176  SER176      0.2089
     78  OG        -1.4730   30.2670   15.1820 O.3   176  SER176     -0.2183
     79  N          2.2780   35.2820   14.0580 N.3   178  ASP178     -0.1239
     80  CA         2.4990   36.5120   14.8130 C.3   178  ASP178      0.1674
     81  C          3.6610   37.2810   14.2120 C.2   178  ASP178      0.2266
     82  O          4.7710   36.7770   14.1190 O.2   178  ASP178     -0.2867
     83  CB         2.7610   36.2340   16.3000 C.3   178  ASP178      0.1410
     84  CG         2.6550   37.4750   17.1470 C.2   178  ASP178      0.3668
     85  OD1        1.5350   38.0020   17.2800 O.co2 178  ASP178     -0.2456
     86  OD2        3.6840   37.9400   17.6820 O.co2 178  ASP178     -0.2456
     87  N          2.7010   28.9920   14.0780 N.3   187  GLU187     -0.1245
     88  CA         2.4980   27.9370   15.0980 C.3   187  GLU187      0.1567
     89  C          1.4190   26.8940   15.1900 C.2   187  GLU187      0.2260
     90  O          1.6450   25.8160   15.6520 O.2   187  GLU187     -0.2867
     91  CB         3.1630   28.1730   16.4250 C.3   187  GLU187      0.0388
     92  CG         2.3670   28.9720   17.3380 C.3   187  GLU187      0.1160
     93  CD         3.0330   29.1500   18.6260 C.2   187  GLU187      0.3649
     94  OE1        4.2030   29.3880   18.6150 O.co2 187  GLU187     -0.2457
     95  OE2        2.4090   29.0060   19.6610 O.co2 187  GLU187     -0.2457
     96  N          6.3320   26.0770   27.5190 N.3   268  ARG268     -0.1245
     97  CA         5.4420   27.1760   27.2230 C.3   268  ARG268      0.1563
     98  C          5.4170   27.4290   28.7540 C.2   268  ARG268      0.2260
     99  O          5.7790   26.5210   29.5280 O.2   268  ARG268     -0.2867
    100  CB         4.0450   26.7900   26.7450 C.3   268  ARG268      0.0307
    101  CG         3.7690   27.1870   25.3120 C.3   268  ARG268      0.0489
    102  CD         2.2850   27.1460   24.9770 C.3   268  ARG268      0.2205
    103  NE         2.1010   27.4300   23.5630 N.pl3 268  ARG268     -0.0865
    104  CZ         1.0440   27.0970   22.8380 C.cat 268  ARG268      0.5346
    105  NH1        0.0200   26.4680   23.3790 N.pl3 268  ARG268      0.1354
    106  NH2        1.0200   27.3900   21.5430 N.pl3 268  ARG268      0.1354
@<TRIPOS>BOND
     1    73    74    1
     2    75    74    1
     3    75    76    2
     4    74    77    1
     5    79    80    1
     6    87    88    1
     7    82    81    2
     8    81    80    1
     9    77    78    1
    10    80    83    1
    11    88    89    1
    12    88    91    1
    13    89    90    2
    14    83    84    1
    15    91    92    1
    16    84    85   ar
    17    84    86   ar
    18    92    93    1
    19    94    93   ar
    20    93    95   ar
    21    11     9    1
    22    10     9    1
    23     9     8    2
    24    23    21    1
    25   106   104    1
    26    52    50   ar
    27     8     7    1
    28    21    22    1
    29    21    18    1
    30   104   105    1
    31   104   103    2
    32     7     6    1
    33    50    51   ar
    34    50    49    1
    35    12    13    1
    36    13    14    1
    37    13    16    1
    38    17    18    1
    39    17    14   am
    40   103   102    1
    41     1     2    1
    42    18    19    1
    43    14    15    2
    44    32    31    1
    45    49    46    1
    46     6     5    1
    47    71    70    1
    48    30    31    1
    49    30    29    1
    50     2     5    1
    51     2     3    1
    52   102   101    1
    53    19    20    2
    54    44    42   am
    55   101   100    1
    56    70    72    1
    57    70    69    2
    58    34    33    1
    59    34    35    1
    60    28    29    1
    61    28    25    1
    62    46    45    1
    63    46    47    1
    64    45    39   am
    65     3     4    2
    66    33    26   am
    67    37    35   am
    68    37    38    1
    69    27    26    2
    70    26    25    1
    71    41    42    1
    72    41    38    1
    73    42    43    2
    74    24    25    1
    75    69    68    1
    76    35    36    2
    77    68    67    1
    78    47    53   am
    79    47    48    2
    80    38    39    1
    81    39    40    2
    82   100    97    1
    83    53    54    1
    84    97    96    1
    85    97    98    1
    86    54    57    1
    87    54    55    1
    88    67    66    1
    89    66    63    1
    90    57    58    1
    91    58    59    1
    92    98    99    2
    93    61    59   am
    94    59    60    2
    95    55    56    2
    96    63    64    1
    97    63    62    1
    98    64    65    2
