@<TRIPOS>MOLECULE
tmp/2nz2A01.pdb
 138 128 0 0 0
SMALL
GASTEIGER

@<TRIPOS>ATOM
      1  N         15.4990   30.3790   20.9160 N.3    84  TYR84      -0.1241
      2  CA        14.4890   31.4110   20.6700 C.3    84  TYR84       0.1605
      3  C         14.9700   32.8210   21.0090 C.2    84  TYR84       0.2264
      4  O         15.3280   33.1110   22.1450 O.2    84  TYR84      -0.2867
      5  CB        13.2090   31.0700   21.4580 C.3    84  TYR84       0.0534
      6  CG        12.0390   31.9950   21.2240 C.ar   84  TYR84      -0.0201
      7  CD1       11.6890   32.4100   19.9350 C.ar   84  TYR84      -0.0009
      8  CD2       11.2550   32.4480   22.2980 C.ar   84  TYR84      -0.0009
      9  CE1       10.6050   33.2630   19.7290 C.ar   84  TYR84       0.0417
     10  CE2       10.1700   33.3000   22.0880 C.ar   84  TYR84       0.0417
     11  CZ         9.8620   33.6970   20.8080 C.ar   84  TYR84       0.1957
     12  OH         8.8020   34.5220   20.6000 O.3    84  TYR84      -0.2866
     13  N          8.2560   37.7690   19.7030 N.3    88  THR88      -0.1203
     14  CA         6.9040   38.0170   20.2200 C.3    88  THR88       0.1994
     15  C          6.9060   38.2750   21.7140 C.2    88  THR88       0.2618
     16  O          6.1000   39.0630   22.2360 O.2    88  THR88      -0.2717
     17  CB         5.9990   36.7930   19.9840 C.3    88  THR88       0.1784
     18  OG1        5.6400   36.7340   18.6080 O.3    88  THR88      -0.2211
     19  CG2        4.7360   36.8700   20.8160 C.3    88  THR88       0.0376
     20  N          7.8140   37.6040   22.4100 N.am   89  SER89      -0.1951
     21  CA         7.8410   37.6980   23.8580 C.3    89  SER89       0.1924
     22  C          8.2310   39.1100   24.3220 C.2    89  SER89       0.2314
     23  O          7.6480   39.6540   25.2430 O.2    89  SER89      -0.2863
     24  CB         8.7340   36.5970   24.4150 C.3    89  SER89       0.2116
     25  OG        10.0210   37.1160   24.6140 O.3    89  SER89      -0.2180
     26  N          5.0510   41.9900   23.7140 N.3    92  ARG92      -0.1245
     27  CA         3.8580   42.0440   24.5770 C.3    92  ARG92       0.1563
     28  C          3.8870   43.1060   25.6640 C.2    92  ARG92       0.2260
     29  O          2.8780   43.7750   25.8340 O.2    92  ARG92      -0.2867
     30  CB         3.4940   40.6700   25.1670 C.3    92  ARG92       0.0307
     31  CG         3.3860   39.5320   24.1430 C.3    92  ARG92       0.0489
     32  CD         2.6310   39.9550   22.8690 C.3    92  ARG92       0.2205
     33  NE         2.3230   38.8590   21.9570 N.pl3  92  ARG92      -0.0865
     34  CZ         1.6560   39.0040   20.8070 C.cat  92  ARG92       0.5346
     35  NH1        1.2510   40.2010   20.4030 N.pl3  92  ARG92       0.1354
     36  NH2        1.3890   37.9470   20.0530 N.pl3  92  ARG92       0.1354
     37  N          1.2950   31.6030   25.9230 N.3   120  ASN120     -0.1225
     38  CA         2.1990   32.4610   26.6990 C.3   120  ASN120      0.1785
     39  C          1.7130   33.8840   26.7350 C.2   120  ASN120      0.2597
     40  O          1.8510   34.5540   27.7530 O.2   120  ASN120     -0.2718
     41  CB         3.5750   32.4730   26.0690 C.3   120  ASN120      0.1169
     42  CG         4.3210   31.1940   26.2920 C.2   120  ASN120      0.2627
     43  OD1        4.2340   30.5890   27.3710 O.2   120  ASN120     -0.2716
     44  ND2        5.0700   30.7660   25.2770 N.am  120  ASN120     -0.0877
     45  N          1.1400   34.3550   25.6310 N.am  121  ASP121     -0.1974
     46  CA         0.8040   35.7770   25.4920 C.3   121  ASP121      0.1709
     47  C         -0.2560   36.2600   26.4730 C.2   121  ASP121      0.2293
     48  O         -0.1960   37.4200   26.9130 O.2   121  ASP121     -0.2864
     49  CB         0.3720   36.1220   24.0650 C.3   121  ASP121      0.1436
     50  CG         1.5200   36.0420   23.0520 C.2   121  ASP121      0.3671
     51  OD1        2.6920   36.3190   23.3890 O.co2 121  ASP121     -0.2456
     52  OD2        1.2320   35.7310   21.8800 O.co2 121  ASP121     -0.2456
     53  N          1.6130   37.2490   29.4190 N.3   124  ARG124     -0.1245
     54  CA         2.4830   38.4050   29.2410 C.3   124  ARG124      0.1563
     55  C          1.6960   39.7070   29.3100 C.2   124  ARG124      0.2260
     56  O          2.0890   40.6200   30.0310 O.2   124  ARG124     -0.2867
     57  CB         3.3060   38.2770   27.9450 C.3   124  ARG124      0.0307
     58  CG         4.1080   36.9810   27.8700 C.3   124  ARG124      0.0489
     59  CD         4.6460   36.7200   26.4470 C.3   124  ARG124      0.2205
     60  NE         5.6390   35.6430   26.4040 N.pl3 124  ARG124     -0.0865
     61  CZ         5.9310   34.9390   25.3170 C.cat 124  ARG124      0.5346
     62  NH1        5.3190   35.1680   24.1630 N.pl3 124  ARG124      0.1354
     63  NH2        6.8250   33.9890   25.3780 N.pl3 124  ARG124      0.1354
     64  N         -1.4140   29.7140   12.4290 N.3   176  SER176     -0.1202
     65  CA        -1.5070   31.1030   12.8810 C.3   176  SER176      0.2020
     66  C         -0.1440   31.7920   12.8120 C.2   176  SER176      0.2619
     67  O          0.8920   31.1410   12.9830 O.2   176  SER176     -0.2717
     68  CB        -2.0910   31.1920   14.3070 C.3   176  SER176      0.2103
     69  OG        -1.4730   30.2670   15.1820 O.3   176  SER176     -0.2182
     70  N         -0.1670   33.1050   12.5580 N.am  177  MET177     -0.1965
     71  CA         1.0440   33.9360   12.4430 C.3   177  MET177      0.1736
     72  C          1.0850   35.0040   13.5450 C.2   177  MET177      0.2616
     73  O          0.0460   35.5440   13.9510 O.2   177  MET177     -0.2715
     74  CB         1.1510   34.5870   11.0360 C.3   177  MET177      0.0427
     75  CG         1.4550   33.5860    9.8650 C.3   177  MET177      0.0599
     76  SD         1.1880   33.9570    8.0480 S.3   177  MET177     -0.1393
     77  CE         2.5360   35.0760    7.6430 C.3   177  MET177      0.0692
     78  N          2.2780   35.2820   14.0580 N.am  178  ASP178     -0.1971
     79  CA         2.4990   36.5120   14.8130 C.3   178  ASP178      0.1709
     80  C          3.6610   37.2810   14.2120 C.2   178  ASP178      0.2293
     81  O          4.7710   36.7770   14.1190 O.2   178  ASP178     -0.2864
     82  CB         2.7610   36.2340   16.3000 C.3   178  ASP178      0.1436
     83  CG         2.6550   37.4750   17.1470 C.2   178  ASP178      0.3671
     84  OD1        1.5350   38.0020   17.2800 O.co2 178  ASP178     -0.2456
     85  OD2        3.6840   37.9400   17.6820 O.co2 178  ASP178     -0.2456
     86  N          6.3830   34.6420   13.5650 N.3   185  SER185     -0.1217
     87  CA         6.2110   33.3110   14.1210 C.3   185  SER185      0.1889
     88  C          5.0030   32.5720   13.5210 C.2   185  SER185      0.2288
     89  O          3.9380   33.1470   13.3160 O.2   185  SER185     -0.2866
     90  CB         6.0390   33.4100   15.6350 C.3   185  SER185      0.2089
     91  OG         5.3740   32.2770   16.1200 O.3   185  SER185     -0.2183
     92  N          2.7010   28.9920   14.0780 N.3   187  GLU187     -0.1245
     93  CA         2.4980   27.9370   15.0980 C.3   187  GLU187      0.1567
     94  C          1.4190   26.8940   15.1900 C.2   187  GLU187      0.2260
     95  O          1.6450   25.8160   15.6520 O.2   187  GLU187     -0.2867
     96  CB         3.1630   28.1730   16.4250 C.3   187  GLU187      0.0388
     97  CG         2.3670   28.9720   17.3380 C.3   187  GLU187      0.1160
     98  CD         3.0330   29.1500   18.6260 C.2   187  GLU187      0.3649
     99  OE1        4.2030   29.3880   18.6150 O.co2 187  GLU187     -0.2457
    100  OE2        2.4090   29.0060   19.6610 O.co2 187  GLU187     -0.2457
    101  N          9.4830   24.2780   21.8530 N.3   266  GLU266     -0.1245
    102  CA         9.7060   25.0960   23.0400 C.3   266  GLU266      0.1567
    103  C          8.7290   24.7650   24.1820 C.2   266  GLU266      0.2260
    104  O          7.6350   24.2120   23.9670 O.2   266  GLU266     -0.2867
    105  CB         9.5410   26.5630   22.6740 C.3   266  GLU266      0.0388
    106  CG         8.0880   26.9940   22.5260 C.3   266  GLU266      0.1160
    107  CD         7.9370   28.3180   21.8160 C.2   266  GLU266      0.3649
    108  OE1        8.1890   28.3810   20.5880 O.co2 266  GLU266     -0.2457
    109  OE2        7.5180   29.2850   22.4800 O.co2 266  GLU266     -0.2457
    110  N          6.3320   26.0770   27.5190 N.3   268  ARG268     -0.1245
    111  CA         5.4420   27.1760   27.2230 C.3   268  ARG268      0.1563
    112  C          5.4170   27.4290   28.7540 C.2   268  ARG268      0.2260
    113  O          5.7790   26.5210   29.5280 O.2   268  ARG268     -0.2867
    114  CB         4.0450   26.7900   26.7450 C.3   268  ARG268      0.0307
    115  CG         3.7690   27.1870   25.3120 C.3   268  ARG268      0.0489
    116  CD         2.2850   27.1460   24.9770 C.3   268  ARG268      0.2205
    117  NE         2.1010   27.4300   23.5630 N.pl3 268  ARG268     -0.0865
    118  CZ         1.0440   27.0970   22.8380 C.cat 268  ARG268      0.5346
    119  NH1        0.0200   26.4680   23.3790 N.pl3 268  ARG268      0.1354
    120  NH2        1.0200   27.3900   21.5430 N.pl3 268  ARG268      0.1354
    121  N          5.4160   23.2430   22.7420 N.3   274  SER274     -0.1217
    122  CA         4.8060   23.7530   21.5250 C.3   274  SER274      0.1889
    123  C          5.8100   23.8050   20.3750 C.2   274  SER274      0.2288
    124  O          6.9870   24.0560   20.5990 O.2   274  SER274     -0.2866
    125  CB         4.1770   25.1310   21.7910 C.3   274  SER274      0.2089
    126  OG         3.6220   25.6640   20.6080 O.3   274  SER274     -0.2183
    127  N         10.2910   30.2520   13.2560 N.3   278  TYR278     -0.1241
    128  CA        10.5000   31.6610   13.4160 C.3   278  TYR278      0.1605
    129  C         11.3730   32.2230   12.3160 C.2   278  TYR278      0.2264
    130  O         12.2170   31.5280   11.7630 O.2   278  TYR278     -0.2867
    131  CB        11.1100   31.9470   14.7870 C.3   278  TYR278      0.0534
    132  CG        10.2610   31.4800   15.9320 C.ar  278  TYR278     -0.0201
    133  CD1        9.2490   32.2810   16.4420 C.ar  278  TYR278     -0.0009
    134  CD2       10.4510   30.2270   16.4970 C.ar  278  TYR278     -0.0009
    135  CE1        8.4450   31.8370   17.4970 C.ar  278  TYR278      0.0417
    136  CE2        9.6620   29.7760   17.5550 C.ar  278  TYR278      0.0417
    137  CZ         8.6650   30.5920   18.0400 C.ar  278  TYR278      0.1957
    138  OH         7.8780   30.1450   19.0560 O.3   278  TYR278     -0.2866
@<TRIPOS>BOND
     1    77    76    1
     2    76    75    1
     3    75    74    1
     4    74    71    1
     5   130   129    2
     6   129   128    1
     7    64    65    1
     8    71    70    1
     9    71    72    1
    10    70    66   am
    11    66    65    1
    12    66    67    2
    13    65    68    1
    14   127   128    1
    15    89    88    2
    16   128   131    1
    17    88    87    1
    18    72    73    2
    19    72    78   am
    20    86    87    1
    21    78    79    1
    22    92    93    1
    23    81    80    2
    24    87    90    1
    25    80    79    1
    26    68    69    1
    27   131   132    1
    28    79    82    1
    29    93    94    1
    30    93    96    1
    31    94    95    2
    32    90    91    1
    33   132   133   ar
    34   132   134   ar
    35    82    83    1
    36    96    97    1
    37   133   135   ar
    38   134   136   ar
    39    83    84   ar
    40    83    85   ar
    41    97    98    1
    42   135   137   ar
    43   136   137   ar
    44   137   138    1
    45    18    17    1
    46    99    98   ar
    47    98   100   ar
    48    13    14    1
    49     9     7   ar
    50     9    11   ar
    51     7     6   ar
    52    17    14    1
    53    17    19    1
    54    36    34    1
    55    14    15    1
    56   123   124    2
    57   123   122    1
    58    35    34    1
    59   108   107   ar
    60    12    11    1
    61   126   125    1
    62     2     1    1
    63     2     3    1
    64     2     5    1
    65    34    33    2
    66    11    10   ar
    67     3     4    2
    68     6     5    1
    69     6     8   ar
    70   122   125    1
    71   122   121    1
    72   120   118    1
    73    15    16    2
    74    15    20   am
    75   107   109   ar
    76   107   106    1
    77   101   102    1
    78    52    50   ar
    79    33    32    1
    80    10     8   ar
    81    20    21    1
    82   106   105    1
    83   105   102    1
    84   118   119    1
    85   118   117    2
    86    32    31    1
    87   102   103    1
    88    50    51   ar
    89    50    49    1
    90   117   116    1
    91    26    27    1
    92    21    22    1
    93    21    24    1
    94   104   103    2
    95    49    46    1
    96    31    30    1
    97    62    61    1
    98    22    23    2
    99    24    25    1
   100    27    30    1
   101    27    28    1
   102   116   115    1
   103    44    42   am
   104   115   114    1
   105    61    63    1
   106    61    60    2
   107    46    45    1
   108    46    47    1
   109    45    39   am
   110    28    29    2
   111    37    38    1
   112    41    42    1
   113    41    38    1
   114    42    43    2
   115    60    59    1
   116    59    58    1
   117    47    48    2
   118    38    39    1
   119    39    40    2
   120   114   111    1
   121   111   110    1
   122   111   112    1
   123    58    57    1
   124    57    54    1
   125   112   113    2
   126    54    55    1
   127    54    53    1
   128    55    56    2
