@<TRIPOS>MOLECULE
tmp/2nz5A02.pdb
 102 100 0 0 0
SMALL
GASTEIGER

@<TRIPOS>ATOM
      1  N        -26.4010   -6.3750   32.7550 N.3    76  HIS76      -0.1226
      2  CA       -26.0730   -7.2250   33.8940 C.3    76  HIS76       0.1752
      3  C        -25.6900   -8.6060   33.3730 C.2    76  HIS76       0.2596
      4  O        -26.2060   -9.0510   32.3500 O.2    76  HIS76      -0.2718
      5  CB       -27.2660   -7.2900   34.8790 C.3    76  HIS76       0.0759
      6  CG       -28.0300   -8.5830   34.8560 C.ar   76  HIS76       0.0818
      7  ND1      -28.6370   -9.0780   33.7200 N.ar   76  HIS76      -0.2268
      8  CD2      -28.3070   -9.4710   35.8430 C.ar   76  HIS76       0.1154
      9  CE1      -29.2560  -10.2120   34.0080 C.ar   76  HIS76       0.1986
     10  NE2      -29.0700  -10.4740   35.2900 N.ar   76  HIS76      -0.2212
     11  N        -24.7680   -9.2670   34.0670 N.am   77  PHE77      -0.1962
     12  CA       -24.3100  -10.5950   33.6730 C.3    77  PHE77       0.1771
     13  C        -24.3080  -11.5470   34.8610 C.2    77  PHE77       0.2619
     14  O        -23.4740  -11.4250   35.7470 O.2    77  PHE77      -0.2715
     15  CB       -22.9000  -10.5090   33.0710 C.3    77  PHE77       0.0574
     16  CG       -22.2770  -11.8430   32.7940 C.ar   77  PHE77      -0.0200
     17  CD1      -22.9560  -12.7970   32.0460 C.ar   77  PHE77      -0.0042
     18  CD2      -21.0170  -12.1570   33.2980 C.ar   77  PHE77      -0.0042
     19  CE1      -22.3910  -14.0500   31.8070 C.ar   77  PHE77      -0.0003
     20  CE2      -20.4410  -13.4080   33.0620 C.ar   77  PHE77      -0.0003
     21  CZ       -21.1310  -14.3570   32.3160 C.ar   77  PHE77      -0.0000
     22  N        -25.2420  -12.4940   34.8750 N.am   78  LYS78      -0.1964
     23  CA       -25.3270  -13.4580   35.9740 C.3    78  LYS78       0.1713
     24  C        -25.4820  -14.8890   35.4510 C.2    78  LYS78       0.2458
     25  O        -26.5490  -15.4770   35.5350 O.2    78  LYS78      -0.2730
     26  CB       -26.5000  -13.1020   36.9010 C.3    78  LYS78       0.0311
     27  CG       -26.5530  -13.9220   38.1920 C.3    78  LYS78       0.0038
     28  CD       -27.6210  -13.4050   39.1670 C.3    78  LYS78       0.0206
     29  CE       -29.0320  -13.6010   38.6280 C.3    78  LYS78       0.1093
     30  NZ       -29.3750  -15.0500   38.4380 N.3    78  LYS78      -0.1314
     31  N        -24.3980  -15.4710   34.9180 N.am   79  PRO79      -0.2716
     32  CA       -24.4130  -16.8340   34.3780 C.3    79  PRO79       0.1536
     33  C        -24.9750  -17.8690   35.3420 C.2    79  PRO79       0.2598
     34  O        -24.6450  -17.8660   36.5260 O.2    79  PRO79      -0.2715
     35  CB       -22.9420  -17.0890   34.0540 C.3    79  PRO79       0.0310
     36  CG       -22.2330  -16.2750   35.0810 C.3    79  PRO79       0.0237
     37  CD       -23.0130  -14.9840   35.0390 C.3    79  PRO79       0.0939
     38  N        -25.8150  -18.7580   34.8250 N.am   80  ARG80      -0.1978
     39  CA       -26.4280  -19.8140   35.6330 C.3    80  ARG80       0.1597
     40  C        -25.7330  -21.1710   35.4510 C.2    80  ARG80       0.2287
     41  O        -25.2600  -21.4970   34.3640 O.2    80  ARG80      -0.2864
     42  CB       -27.8980  -19.9780   35.2530 C.3    80  ARG80       0.0334
     43  CG       -28.7880  -18.8110   35.5930 C.3    80  ARG80       0.0492
     44  CD       -30.0910  -18.9390   34.8270 C.3    80  ARG80       0.2205
     45  NE       -31.0610  -17.9150   35.1920 N.pl3  80  ARG80      -0.0865
     46  CZ       -31.6920  -17.8720   36.3630 C.cat  80  ARG80       0.5346
     47  NH1      -31.4630  -18.8030   37.2850 N.pl3  80  ARG80       0.1354
     48  NH2      -32.5500  -16.8930   36.6140 N.pl3  80  ARG80       0.1354
     49  N        -41.5660  -13.2670   27.9710 N.3   168  GLN168     -0.1245
     50  CA       -40.6850  -12.3860   28.7220 C.3   168  GLN168      0.1566
     51  C        -39.6470  -11.9540   27.6870 C.2   168  GLN168      0.2260
     52  O        -38.5250  -11.5570   28.0080 O.2   168  GLN168     -0.2867
     53  CB       -40.0310  -13.1450   29.8690 C.3   168  GLN168      0.0367
     54  CG       -39.3550  -14.4260   29.4450 C.3   168  GLN168      0.0905
     55  CD       -38.7950  -15.1790   30.6250 C.2   168  GLN168      0.2608
     56  OE1      -39.5330  -15.5970   31.5150 O.2   168  GLN168     -0.2717
     57  NE2      -37.4800  -15.3530   30.6440 N.am  168  GLN168     -0.0878
     58  N        -38.1790  -10.4200   35.1890 N.3   180  GLU180     -0.1245
     59  CA       -37.6220  -11.2280   36.2690 C.3   180  GLU180      0.1567
     60  C        -38.7550  -11.8040   37.1060 C.2   180  GLU180      0.2260
     61  O        -38.5390  -12.3700   38.1770 O.2   180  GLU180     -0.2867
     62  CB       -36.7120  -10.3690   37.1470 C.3   180  GLU180      0.0388
     63  CG       -35.5170   -9.7910   36.4000 C.3   180  GLU180      0.1160
     64  CD       -34.5620  -10.8650   35.9060 C.2   180  GLU180      0.3649
     65  OE1      -33.9350  -11.5390   36.7540 O.co2 180  GLU180     -0.2457
     66  OE2      -34.4420  -11.0380   34.6730 O.co2 180  GLU180     -0.2457
     67  N        -39.9850  -15.2160   34.5470 N.3   183  LYS183     -0.1245
     68  CA       -39.0610  -16.3360   34.6440 C.3   183  LYS183      0.1561
     69  C        -39.0350  -16.9050   36.0510 C.2   183  LYS183      0.2260
     70  O        -38.7130  -18.0840   36.2500 O.2   183  LYS183     -0.2867
     71  CB       -37.6530  -15.9240   34.2040 C.3   183  LYS183      0.0271
     72  CG       -37.0910  -14.7080   34.9090 C.3   183  LYS183      0.0035
     73  CD       -35.7590  -14.3180   34.2730 C.3   183  LYS183      0.0206
     74  CE       -35.9240  -14.0740   32.7730 C.3   183  LYS183      0.1093
     75  NZ       -34.6380  -13.8810   32.0620 N.3   183  LYS183     -0.1314
     76  N        -39.0080  -20.5520   35.6680 N.3   187  TYR187     -0.1241
     77  CA       -37.9080  -21.3550   36.1960 C.3   187  TYR187      0.1605
     78  C        -38.3270  -22.1840   37.4050 C.2   187  TYR187      0.2264
     79  O        -37.6850  -23.1840   37.7290 O.2   187  TYR187     -0.2867
     80  CB       -36.7020  -20.4720   36.5370 C.3   187  TYR187      0.0534
     81  CG       -36.0970  -19.7330   35.3450 C.ar  187  TYR187     -0.0201
     82  CD1      -35.1790  -18.6980   35.5370 C.ar  187  TYR187     -0.0009
     83  CD2      -36.4620  -20.0490   34.0340 C.ar  187  TYR187     -0.0009
     84  CE1      -34.6400  -17.9940   34.4610 C.ar  187  TYR187      0.0417
     85  CE2      -35.9250  -19.3490   32.9460 C.ar  187  TYR187      0.0417
     86  CZ       -35.0130  -18.3220   33.1730 C.ar  187  TYR187      0.1957
     87  OH       -34.4690  -17.6310   32.1180 O.3   187  TYR187     -0.2866
     88  N        -32.4940  -21.7280   28.4260 N.3   229  PRO229     -0.2116
     89  CA       -32.1710  -21.2060   27.0850 C.3   229  PRO229      0.1372
     90  C        -32.9290  -21.8960   25.9550 C.2   229  PRO229      0.2244
     91  O        -33.3200  -21.2570   24.9850 O.2   229  PRO229     -0.2868
     92  CB       -30.6640  -21.4290   26.9820 C.3   229  PRO229      0.0268
     93  CG       -30.2090  -21.2510   28.3910 C.3   229  PRO229      0.0207
     94  CD       -31.2670  -21.9760   29.2070 C.3   229  PRO229      0.0892
     95  N        -36.7890  -20.9860   25.8840 N.3   232  ILE232     -0.1245
     96  CA       -37.0010  -19.6380   25.3720 C.3   232  ILE232      0.1561
     97  C        -36.2420  -19.3860   24.0610 C.2   232  ILE232      0.2260
     98  O        -36.3090  -18.2930   23.5180 O.2   232  ILE232     -0.2867
     99  CB       -36.5350  -18.5510   26.3750 C.3   232  ILE232      0.0252
    100  CG1      -37.1550  -18.7800   27.7540 C.3   232  ILE232      0.0019
    101  CG2      -36.9740  -17.1950   25.8890 C.3   232  ILE232      0.0019
    102  CD1      -38.6490  -19.0640   27.7160 C.3   232  ILE232      0.0001
@<TRIPOS>BOND
     1    98    97    2
     2    97    96    1
     3    91    90    2
     4    96    95    1
     5    96    99    1
     6   101    99    1
     7    90    89    1
     8    99   100    1
     9    92    89    1
    10    92    93    1
    11    89    88    1
    12    51    52    2
    13    51    50    1
    14   102   100    1
    15    49    50    1
    16    93    94    1
    17    88    94    1
    18    50    53    1
    19    54    53    1
    20    54    55    1
    21    55    57   am
    22    55    56    2
    23    19    17   ar
    24    19    21   ar
    25    17    16   ar
    26    75    74    1
    27    87    86    1
    28    21    20   ar
    29     4     3    2
    30     1     2    1
    31    74    73    1
    32    16    15    1
    33    16    18   ar
    34    85    86   ar
    35    85    83   ar
    36    20    18   ar
    37    15    12    1
    38    86    84   ar
    39     3     2    1
    40     3    11   am
    41    12    11    1
    42    12    13    1
    43     7     9   ar
    44     7     6   ar
    45     2     5    1
    46     9    10   ar
    47    83    81   ar
    48    35    32    1
    49    35    36    1
    50    71    68    1
    51    71    72    1
    52    73    72    1
    53    41    40    2
    54    32    31    1
    55    32    33    1
    56    84    82   ar
    57    67    68    1
    58    68    69    1
    59    66    64   ar
    60    38    33   am
    61    38    39    1
    62    44    45    1
    63    44    43    1
    64     6     5    1
    65     6     8   ar
    66    13    22   am
    67    13    14    2
    68    22    23    1
    69    31    37    1
    70    31    24   am
    71    37    36    1
    72    58    59    1
    73    45    46    2
    74    42    43    1
    75    42    39    1
    76    10     8   ar
    77    33    34    2
    78    81    82   ar
    79    81    80    1
    80    24    25    2
    81    24    23    1
    82    40    39    1
    83    76    77    1
    84    64    63    1
    85    64    65   ar
    86    23    26    1
    87    69    70    2
    88    77    80    1
    89    77    78    1
    90    59    60    1
    91    59    62    1
    92    46    48    1
    93    46    47    1
    94    63    62    1
    95    26    27    1
    96    60    61    2
    97    78    79    2
    98    27    28    1
    99    30    29    1
   100    29    28    1
