@<TRIPOS>MOLECULE
tmp/2nz5A01.pdb
 93 86 0 0 0
SMALL
GASTEIGER

@<TRIPOS>ATOM
      1  N        -23.6580  -22.6840   27.0300 N.3    85  ALA85      -0.1245
      2  CA       -22.8870  -21.5280   26.6030 C.3    85  ALA85       0.1562
      3  C        -21.5540  -21.3710   27.3400 C.2    85  ALA85       0.2260
      4  O        -20.5080  -21.2130   26.7100 O.2    85  ALA85      -0.2867
      5  CB       -23.7210  -20.2710   26.7580 C.3    85  ALA85       0.0290
      6  N        -32.4940  -21.7280   28.4260 N.3   229  PRO229     -0.2116
      7  CA       -32.1710  -21.2060   27.0850 C.3   229  PRO229      0.1372
      8  C        -32.9290  -21.8960   25.9550 C.2   229  PRO229      0.2244
      9  O        -33.3200  -21.2570   24.9850 O.2   229  PRO229     -0.2868
     10  CB       -30.6640  -21.4290   26.9820 C.3   229  PRO229      0.0268
     11  CG       -30.2090  -21.2510   28.3910 C.3   229  PRO229      0.0207
     12  CD       -31.2670  -21.9760   29.2070 C.3   229  PRO229      0.0892
     13  N        -35.5290  -20.3960   23.5630 N.3   233  GLY233     -0.1225
     14  CA       -34.7460  -20.2350   22.3460 C.3   233  GLY233      0.1811
     15  C        -35.5110  -20.0100   21.0570 C.2   233  GLY233      0.2280
     16  O        -34.9180  -19.6410   20.0480 O.2   233  GLY233     -0.2866
     17  N        -35.3870  -16.7130   18.7430 N.3   236  ALA236     -0.1245
     18  CA       -34.3250  -16.5090   17.7700 C.3   236  ALA236      0.1562
     19  C        -34.9110  -16.7120   16.3690 C.2   236  ALA236      0.2260
     20  O        -34.5720  -15.9610   15.4560 O.2   236  ALA236     -0.2867
     21  CB       -33.1630  -17.4670   18.0310 C.3   236  ALA236      0.0290
     22  N        -28.1820  -11.0060   12.6000 N.3   278  HIS278     -0.1226
     23  CA       -29.0620  -11.5850   13.5870 C.3   278  HIS278      0.1752
     24  C        -29.0790  -10.9430   14.9740 C.2   278  HIS278      0.2595
     25  O        -30.1410  -10.8110   15.6010 O.2   278  HIS278     -0.2718
     26  CB       -28.7480  -13.0720   13.7040 C.3   278  HIS278      0.0759
     27  CG       -29.6150  -13.7940   14.6810 C.ar  278  HIS278      0.0818
     28  ND1      -30.9750  -13.9350   14.5060 N.ar  278  HIS278     -0.2268
     29  CD2      -29.3150  -14.4320   15.8350 C.ar  278  HIS278      0.1154
     30  CE1      -31.4730  -14.6310   15.5110 C.ar  278  HIS278      0.1986
     31  NE2      -30.4860  -14.9430   16.3310 N.ar  278  HIS278     -0.2212
     32  N        -27.9060  -10.5450   15.4570 N.am  279  ARG279     -0.1980
     33  CA       -27.8180   -9.9540   16.7770 C.3   279  ARG279      0.1597
     34  C        -27.1840   -8.5920   16.6800 C.2   279  ARG279      0.2287
     35  O        -26.7240   -8.1990   15.6170 O.2   279  ARG279     -0.2864
     36  CB       -26.9700  -10.8380   17.6840 C.3   279  ARG279      0.0334
     37  CG       -25.5260  -10.9780   17.2090 C.3   279  ARG279      0.0492
     38  CD       -24.6360  -11.5630   18.3020 C.3   279  ARG279      0.2205
     39  NE       -24.5780  -10.6570   19.4450 N.pl3 279  ARG279     -0.0865
     40  CZ       -24.8340  -11.0000   20.7040 C.cat 279  ARG279      0.5346
     41  NH1      -25.1670  -12.2440   21.0140 N.pl3 279  ARG279      0.1354
     42  NH2      -24.7620  -10.0870   21.6570 N.pl3 279  ARG279      0.1354
     43  N        -21.4990  -11.2720   21.3400 N.3   283  GLY283     -0.1210
     44  CA       -21.9840  -11.7400   22.6250 C.3   283  GLY283      0.1956
     45  C        -21.2190  -12.6000   23.6200 C.2   283  GLY283      0.2611
     46  O        -20.9240  -12.1430   24.7230 O.2   283  GLY283     -0.2717
     47  N        -20.9050  -13.8400   23.2730 N.am  284  LEU284     -0.1979
     48  CA       -20.2460  -14.7240   24.2350 C.3   284  LEU284      0.1596
     49  C        -18.7490  -14.8630   24.0080 C.2   284  LEU284      0.2287
     50  O        -18.3080  -15.6640   23.1910 O.2   284  LEU284     -0.2864
     51  CB       -20.9170  -16.0900   24.1820 C.3   284  LEU284      0.0297
     52  CG       -22.4460  -16.0430   24.2940 C.3   284  LEU284      0.0022
     53  CD1      -23.0760  -17.2280   23.5490 C.3   284  LEU284      0.0001
     54  CD2      -22.8450  -16.0200   25.7680 C.3   284  LEU284      0.0001
     55  N        -19.5430  -13.5450   14.0760 N.3   309  TYR309     -0.1241
     56  CA       -19.9840  -14.3980   12.9850 C.3   309  TYR309      0.1605
     57  C        -20.6230  -13.5870   11.8630 C.2   309  TYR309      0.2264
     58  O        -20.5870  -13.9990   10.7000 O.2   309  TYR309     -0.2867
     59  CB       -20.9580  -15.4570   13.4950 C.3   309  TYR309      0.0534
     60  CG       -20.3310  -16.4150   14.4700 C.ar  309  TYR309     -0.0201
     61  CD1      -20.7830  -16.4900   15.7890 C.ar  309  TYR309     -0.0009
     62  CD2      -19.2980  -17.2570   14.0780 C.ar  309  TYR309     -0.0009
     63  CE1      -20.2240  -17.3790   16.6870 C.ar  309  TYR309      0.0417
     64  CE2      -18.7300  -18.1560   14.9690 C.ar  309  TYR309      0.0417
     65  CZ       -19.1970  -18.2150   16.2720 C.ar  309  TYR309      0.1957
     66  OH       -18.6510  -19.1130   17.1670 O.3   309  TYR309     -0.2866
     67  N        -23.6030  -18.5580   10.6280 N.3   336  ALA336     -0.1245
     68  CA       -24.7340  -17.9690   11.3610 C.3   336  ALA336      0.1562
     69  C        -25.0820  -18.7210   12.6370 C.2   336  ALA336      0.2260
     70  O        -25.6750  -18.1610   13.5510 O.2   336  ALA336     -0.2867
     71  CB       -25.9580  -17.9020   10.4660 C.3   336  ALA336      0.0290
     72  N        -24.8550  -23.9320   17.5810 N.3   344  CYS344     -0.1235
     73  CA       -26.2560  -23.8260   17.9950 C.3   344  CYS344      0.1677
     74  C        -26.9570  -25.1880   18.1700 C.2   344  CYS344      0.2270
     75  O        -27.1130  -25.9640   17.2120 O.2   344  CYS344     -0.2867
     76  CB       -27.0230  -22.9690   16.9890 C.3   344  CYS344      0.0956
     77  SG       -28.7510  -22.7420   17.4160 S.3   344  CYS344     -0.0801
     78  N        -30.5920   -7.8830   22.4280 N.3   384  MET384     -0.1230
     79  CA       -29.5260   -8.6910   21.8650 C.3   384  MET384      0.1702
     80  C        -29.8100   -9.1250   20.4280 C.2   384  MET384      0.2592
     81  O        -28.9690   -8.9780   19.5400 O.2   384  MET384     -0.2718
     82  CB       -29.3020   -9.9190   22.7200 C.3   384  MET384      0.0401
     83  CG       -28.1360  -10.7570   22.2220 C.3   384  MET384      0.0596
     84  SD       -27.7950  -12.1470   23.2800 S.3   384  MET384     -0.1393
     85  CE       -26.0950  -11.7050   23.9110 C.3   384  MET384      0.0692
     86  N        -31.0050   -9.6530   20.1980 N.am  385  ILE385     -0.1980
     87  CA       -31.3920  -10.1040   18.8750 C.3   385  ILE385      0.1595
     88  C        -32.1480   -9.0250   18.1020 C.2   385  ILE385      0.2287
     89  O        -33.0390   -8.3770   18.6380 O.2   385  ILE385     -0.2864
     90  CB       -32.2440  -11.3600   18.9940 C.3   385  ILE385      0.0276
     91  CG1      -31.4390  -12.4330   19.7310 C.3   385  ILE385      0.0022
     92  CG2      -32.6550  -11.8530   17.6220 C.3   385  ILE385      0.0022
     93  CD1      -32.2340  -13.6600   20.0480 C.3   385  ILE385      0.0001
@<TRIPOS>BOND
     1    71    68    1
     2    67    68    1
     3    58    57    2
     4    68    69    1
     5    57    56    1
     6    22    23    1
     7    69    70    2
     8    56    59    1
     9    56    55    1
    10    59    60    1
    11    23    26    1
    12    23    24    1
    13    26    27    1
    14    62    60   ar
    15    62    64   ar
    16    60    61   ar
    17    28    27   ar
    18    28    30   ar
    19    27    29   ar
    20    64    65   ar
    21    24    32   am
    22    24    25    2
    23    20    19    2
    24    32    33    1
    25    30    31   ar
    26    35    34    2
    27    61    63   ar
    28    29    31   ar
    29    65    63   ar
    30    65    66    1
    31    19    18    1
    32    34    33    1
    33    33    36    1
    34    76    77    1
    35    76    73    1
    36    37    36    1
    37    37    38    1
    38    75    74    2
    39    72    73    1
    40    92    90    1
    41    18    21    1
    42    18    17    1
    43    73    74    1
    44    88    89    2
    45    88    87    1
    46    38    39    1
    47    87    90    1
    48    87    86    1
    49    90    91    1
    50    39    40    2
    51    81    80    2
    52    91    93    1
    53    16    15    2
    54    86    80   am
    55    80    79    1
    56    40    41    1
    57    40    42    1
    58    15    14    1
    59    43    44    1
    60    79    78    1
    61    79    82    1
    62    83    82    1
    63    83    84    1
    64    14    13    1
    65    44    45    1
    66    50    49    2
    67    47    45   am
    68    47    48    1
    69    84    85    1
    70    53    52    1
    71    45    46    2
    72    49    48    1
    73    51    48    1
    74    51    52    1
    75    52    54    1
    76     9     8    2
    77     8     7    1
    78     2     5    1
    79     2     1    1
    80     2     3    1
    81     4     3    2
    82    10     7    1
    83    10    11    1
    84     7     6    1
    85    11    12    1
    86     6    12    1
