@<TRIPOS>MOLECULE
tmp/2nz5B01.pdb
 76 70 0 0 0
SMALL
GASTEIGER

@<TRIPOS>ATOM
      1  N        -81.1960  -23.3720   26.6320 N.3    85  ALA85      -0.1245
      2  CA       -81.9520  -22.2390   27.1610 C.3    85  ALA85       0.1562
      3  C        -83.3060  -22.0520   26.4710 C.2    85  ALA85       0.2260
      4  O        -84.3020  -21.7340   27.1250 O.2    85  ALA85      -0.2867
      5  CB       -81.1220  -20.9460   27.0610 C.3    85  ALA85       0.0290
      6  N        -72.4380  -22.6930   24.8390 N.3   229  PRO229     -0.2116
      7  CA       -72.6560  -22.2630   26.2250 C.3   229  PRO229      0.1372
      8  C        -71.8250  -23.0730   27.2260 C.2   229  PRO229      0.2244
      9  O        -71.1290  -22.5050   28.0580 O.2   229  PRO229     -0.2868
     10  CB       -74.1540  -22.4790   26.4150 C.3   229  PRO229      0.0268
     11  CG       -74.6960  -22.1520   25.0520 C.3   229  PRO229      0.0207
     12  CD       -73.7130  -22.8420   24.1220 C.3   229  PRO229      0.0892
     13  N        -69.2560  -21.6520   29.4580 N.3   233  GLY233     -0.1225
     14  CA       -69.8050  -21.5830   30.8090 C.3   233  GLY233      0.1811
     15  C        -68.9080  -21.2340   31.9920 C.2   233  GLY233      0.2280
     16  O        -69.3740  -20.5970   32.9380 O.2   233  GLY233     -0.2866
     17  N        -68.8790  -18.0010   34.1720 N.3   236  ALA236     -0.1245
     18  CA       -69.8610  -17.7790   35.2190 C.3   236  ALA236      0.1562
     19  C        -69.2650  -18.0350   36.6140 C.2   236  ALA236      0.2260
     20  O        -69.6280  -17.3590   37.5870 O.2   236  ALA236     -0.2867
     21  CB       -71.0770  -18.6690   34.9750 C.3   236  ALA236      0.0290
     22  N        -75.7080  -12.0310   40.8110 N.3   278  HIS278     -0.1226
     23  CA       -74.9350  -12.6140   39.7210 C.3   278  HIS278      0.1752
     24  C        -75.1170  -11.9710   38.3250 C.2   278  HIS278      0.2595
     25  O        -74.1490  -11.8620   37.5650 O.2   278  HIS278     -0.2718
     26  CB       -75.2290  -14.1250   39.6550 C.3   278  HIS278      0.0759
     27  CG       -74.3220  -14.8800   38.7350 C.ar  278  HIS278      0.0818
     28  ND1      -72.9710  -15.0210   38.9690 N.ar  278  HIS278     -0.2268
     29  CD2      -74.5660  -15.5040   37.5600 C.ar  278  HIS278      0.1154
     30  CE1      -72.4220  -15.6980   37.9770 C.ar  278  HIS278      0.1986
     31  NE2      -73.3680  -16.0040   37.1090 N.ar  278  HIS278     -0.2212
     32  N        -76.3490  -11.5690   37.9930 N.am  279  ARG279     -0.1980
     33  CA       -76.6850  -10.9390   36.7050 C.3   279  ARG279      0.1597
     34  C        -76.9370   -9.4760   36.9730 C.2   279  ARG279      0.2287
     35  O        -77.1430   -9.1020   38.1150 O.2   279  ARG279     -0.2864
     36  CB       -77.9930  -11.4800   36.1380 C.3   279  ARG279      0.0334
     37  CG       -78.0700  -12.9500   35.8440 C.3   279  ARG279      0.0492
     38  CD       -79.4920  -13.2330   35.4010 C.3   279  ARG279      0.2205
     39  NE       -79.9210  -12.2150   34.4430 N.pl3 279  ARG279     -0.0865
     40  CZ       -79.5400  -12.1780   33.1660 C.cat 279  ARG279      0.5346
     41  NH1      -78.7280  -13.1100   32.6840 N.pl3 279  ARG279      0.1354
     42  NH2      -79.9460  -11.1920   32.3780 N.pl3 279  ARG279      0.1354
     43  N        -83.0040  -11.9370   32.4270 N.3   283  GLY283     -0.1210
     44  CA       -82.8110  -12.4450   31.0730 C.3   283  GLY283      0.1956
     45  C        -83.6010  -13.7190   30.7920 C.2   283  GLY283      0.2611
     46  O        -84.2210  -14.2770   31.6950 O.2   283  GLY283     -0.2717
     47  N        -83.5890  -14.1880   29.5470 N.am  284  LEU284     -0.1979
     48  CA       -84.3160  -15.4030   29.1920 C.3   284  LEU284      0.1596
     49  C        -85.7610  -15.3540   29.6630 C.2   284  LEU284      0.2287
     50  O        -86.1290  -16.0220   30.6300 O.2   284  LEU284     -0.2864
     51  CB       -83.6450  -16.6170   29.8200 C.3   284  LEU284      0.0297
     52  CG       -82.2080  -16.8860   29.3950 C.3   284  LEU284      0.0022
     53  CD1      -81.6830  -18.0970   30.1580 C.3   284  LEU284      0.0001
     54  CD2      -82.1500  -17.1050   27.8860 C.3   284  LEU284      0.0001
     55  N        -79.5270  -24.9590   35.9800 N.3   344  CYS344     -0.1235
     56  CA       -78.1630  -24.9010   35.5040 C.3   344  CYS344      0.1677
     57  C        -77.5100  -26.2480   35.2770 C.2   344  CYS344      0.2270
     58  O        -77.3680  -27.0620   36.1840 O.2   344  CYS344     -0.2867
     59  CB       -77.3060  -24.0750   36.4570 C.3   344  CYS344      0.0956
     60  SG       -75.6480  -23.7870   35.8170 S.3   344  CYS344     -0.0801
     61  N        -73.9110   -9.0200   30.9430 N.3   384  MET384     -0.1230
     62  CA       -75.0010   -9.7540   31.5420 C.3   384  MET384      0.1702
     63  C        -74.6080  -10.1570   32.9670 C.2   384  MET384      0.2592
     64  O        -75.3430   -9.8990   33.9200 O.2   384  MET384     -0.2718
     65  CB       -75.3140  -10.9800   30.6830 C.3   384  MET384      0.0401
     66  CG       -76.4580  -11.8650   31.1830 C.3   384  MET384      0.0596
     67  SD       -76.9060  -13.1540   29.9480 S.3   384  MET384     -0.1393
     68  CE       -75.7010  -14.4870   30.3550 C.3   384  MET384      0.0692
     69  N        -73.4330  -10.7600   33.1100 N.am  385  ILE385     -0.1980
     70  CA       -72.9740  -11.2010   34.4220 C.3   385  ILE385      0.1595
     71  C        -72.0590  -10.2050   35.1230 C.2   385  ILE385      0.2287
     72  O        -71.0230   -9.8000   34.5870 O.2   385  ILE385     -0.2864
     73  CB       -72.2370  -12.5610   34.3260 C.3   385  ILE385      0.0276
     74  CG1      -73.2210  -13.6640   33.9270 C.3   385  ILE385      0.0022
     75  CG2      -71.5670  -12.8770   35.6440 C.3   385  ILE385      0.0022
     76  CD1      -72.5690  -14.9940   33.6550 C.3   385  ILE385      0.0001
@<TRIPOS>BOND
     1    12     6    1
     2    12    11    1
     3     6     7    1
     4    11    10    1
     5     7    10    1
     6     7     8    1
     7     3     4    2
     8     3     2    1
     9     1     2    1
    10     5     2    1
    11     8     9    2
    12    54    52    1
    13    48    47    1
    14    48    49    1
    15    48    51    1
    16    52    51    1
    17    52    53    1
    18    13    14    1
    19    47    45   am
    20    49    50    2
    21    67    68    1
    22    67    66    1
    23    65    66    1
    24    65    62    1
    25    45    44    1
    26    45    46    2
    27    14    15    1
    28    61    62    1
    29    44    43    1
    30    62    63    1
    31    15    16    2
    32    42    40    1
    33    41    40    1
    34    63    69   am
    35    63    64    2
    36    69    70    1
    37    40    39    2
    38    76    74    1
    39    74    73    1
    40    17    18    1
    41    73    70    1
    42    73    75    1
    43    70    71    1
    44    39    38    1
    45    72    71    2
    46    21    18    1
    47    18    19    1
    48    57    56    1
    49    57    58    2
    50    38    37    1
    51    56    55    1
    52    56    59    1
    53    60    59    1
    54    37    36    1
    55    36    33    1
    56    19    20    2
    57    33    34    1
    58    33    32    1
    59    34    35    2
    60    31    29   ar
    61    31    30   ar
    62    29    27   ar
    63    25    24    2
    64    30    28   ar
    65    32    24   am
    66    24    23    1
    67    27    28   ar
    68    27    26    1
    69    26    23    1
    70    23    22    1
