@<TRIPOS>MOLECULE
tmp/2nzjB00.pdb
 103 99 0 0 0
SMALL
GASTEIGER

@<TRIPOS>ATOM
      1  N        -14.7140    4.4400  -58.6100 N.3    12  PRO12      -0.2102
      2  CA       -14.9780    4.4780  -60.0450 C.3    12  PRO12       0.1504
      3  C        -15.8410    5.6780  -60.3870 C.2    12  PRO12       0.2576
      4  O        -16.6910    6.0620  -59.5800 O.2    12  PRO12      -0.2718
      5  CB       -15.7380    3.1710  -60.2990 C.3    12  PRO12       0.0282
      6  CG       -15.4300    2.3070  -59.1100 C.3    12  PRO12       0.0208
      7  CD       -15.3330    3.2690  -57.9730 C.3    12  PRO12       0.0893
      8  N        -15.6110    6.2710  -61.5550 N.am   13  GLY13      -0.1943
      9  CA       -16.4670    7.3410  -62.0590 C.3    13  GLY13       0.2014
     10  C        -16.0500    8.7530  -61.7110 C.2    13  GLY13       0.2639
     11  O        -16.6620    9.6990  -62.1950 O.2    13  GLY13      -0.2714
     12  N        -15.0040    8.9080  -60.8900 N.am   14  VAL14      -0.1963
     13  CA       -14.5790   10.2420  -60.4490 C.3    14  VAL14       0.1727
     14  C        -13.7210   10.9710  -61.4580 C.2    14  VAL14       0.2617
     15  O        -13.5290   12.1540  -61.3270 O.2    14  VAL14      -0.2715
     16  CB       -13.8070   10.2190  -59.0960 C.3    14  VAL14       0.0290
     17  CG1      -14.7220    9.6870  -58.0010 C.3    14  VAL14       0.0023
     18  CG2      -12.5090    9.4190  -59.2220 C.3    14  VAL14       0.0023
     19  N        -13.1810   10.2560  -62.4410 N.am   15  GLY15      -0.1940
     20  CA       -12.3840   10.8670  -63.5210 C.3    15  GLY15       0.2014
     21  C        -10.9010   10.5340  -63.5780 C.2    15  GLY15       0.2639
     22  O        -10.1140   11.2470  -64.2120 O.2    15  GLY15      -0.2714
     23  N        -10.5140    9.4350  -62.9440 N.am   16  LYS16      -0.1963
     24  CA        -9.0930    9.0380  -62.8480 C.3    16  LYS16       0.1728
     25  C         -8.4680    8.8460  -64.2460 C.2    16  LYS16       0.2617
     26  O         -7.4300    9.4310  -64.5890 O.2    16  LYS16      -0.2715
     27  CB        -8.9440    7.7480  -62.0130 C.3    16  LYS16       0.0311
     28  CG        -9.3400    7.9370  -60.5460 C.3    16  LYS16       0.0038
     29  CD        -9.0650    6.7490  -59.6470 C.3    16  LYS16       0.0206
     30  CE        -9.9050    5.5330  -60.0140 C.3    16  LYS16       0.1093
     31  NZ       -11.3550    5.8190  -60.2280 N.3    16  LYS16      -0.1314
     32  N         -9.1290    8.0260  -65.0560 N.am   17  THR17      -0.1937
     33  CA        -8.6420    7.7410  -66.3820 C.3    17  THR17       0.2028
     34  C         -8.6250    9.0070  -67.2450 C.2    17  THR17       0.2642
     35  O         -7.7320    9.1980  -68.0610 O.2    17  THR17      -0.2714
     36  CB        -9.4600    6.6010  -67.0850 C.3    17  THR17       0.1808
     37  OG1       -9.3530    5.3680  -66.3420 O.3    17  THR17      -0.2208
     38  CG2       -8.9560    6.3770  -68.5230 C.3    17  THR17       0.0379
     39  N         -9.6050    9.8770  -67.0620 N.am   18  SER18      -0.1949
     40  CA        -9.6600   11.1130  -67.8050 C.3    18  SER18       0.1924
     41  C         -8.4960   12.0300  -67.4520 C.2    18  SER18       0.2314
     42  O         -7.9070   12.6250  -68.3390 O.2    18  SER18      -0.2863
     43  CB       -10.9920   11.8060  -67.5560 C.3    18  SER18       0.2116
     44  OG       -12.0640   10.9800  -68.0070 O.3    18  SER18      -0.2180
     45  N         -2.8050    4.0620  -63.2740 N.3    57  ASP57      -0.1239
     46  CA        -4.2700    4.1530  -63.2130 C.3    57  ASP57       0.1674
     47  C         -4.8750    2.7450  -63.2430 C.2    57  ASP57       0.2266
     48  O         -5.5720    2.3650  -64.1800 O.2    57  ASP57      -0.2867
     49  CB        -4.7900    5.0170  -64.3630 C.3    57  ASP57       0.1410
     50  CG        -6.3100    5.0730  -64.4320 C.2    57  ASP57       0.3668
     51  OD1       -6.9840    5.1580  -63.3720 O.co2  57  ASP57      -0.2456
     52  OD2       -6.8370    5.0300  -65.5650 O.co2  57  ASP57      -0.2456
     53  N        -12.3880   16.5300  -58.4840 N.3   107  ASN107     -0.1225
     54  CA       -12.5990   16.6050  -59.9320 C.3   107  ASN107      0.1785
     55  C        -14.0640   16.8810  -60.2670 C.2   107  ASN107      0.2597
     56  O        -14.9490   16.8000  -59.4100 O.2   107  ASN107     -0.2718
     57  CB       -12.1220   15.3140  -60.6110 C.3   107  ASN107      0.1169
     58  CG       -12.0870   15.4290  -62.1430 C.2   107  ASN107      0.2627
     59  OD1      -11.6150   16.4590  -62.6910 O.2   107  ASN107     -0.2716
     60  ND2      -12.6100   14.3870  -62.8450 N.am  107  ASN107     -0.0877
     61  N        -14.3170   17.2280  -61.5130 N.am  108  LYS108     -0.1980
     62  CA       -15.6500   17.6130  -62.0000 C.3   108  LYS108      0.1596
     63  C        -16.1270   18.9430  -61.4240 C.2   108  LYS108      0.2287
     64  O        -17.3100   19.1190  -61.2090 O.2   108  LYS108     -0.2864
     65  CB       -16.6850   16.5150  -61.7680 C.3   108  LYS108      0.0298
     66  CG       -16.2280   15.1470  -62.1820 C.3   108  LYS108      0.0038
     67  CD       -17.3820   14.2340  -62.4240 C.3   108  LYS108      0.0206
     68  CE       -16.9460   12.8490  -62.8540 C.3   108  LYS108      0.1093
     69  NZ       -18.1380   11.9140  -62.8590 N.3   108  LYS108     -0.1314
     70  N        -16.5160   21.6560  -62.9260 N.3   110  ASP110     -0.1225
     71  CA       -17.4830   22.2460  -63.8680 C.3   110  ASP110      0.1805
     72  C        -18.9240   21.9450  -63.5350 C.2   110  ASP110      0.2597
     73  O        -19.8130   22.6450  -64.0150 O.2   110  ASP110     -0.2718
     74  CB       -17.2430   21.7670  -65.2860 C.3   110  ASP110      0.1424
     75  CG       -17.1930   20.2570  -65.3880 C.2   110  ASP110      0.3668
     76  OD1      -16.2490   19.7010  -64.8230 O.co2 110  ASP110     -0.2456
     77  OD2      -18.0720   19.6320  -66.0140 O.co2 110  ASP110     -0.2456
     78  N        -19.1720   20.9050  -62.7430 N.am  111  LEU111     -0.1979
     79  CA       -20.5300   20.5440  -62.3800 C.3   111  LEU111      0.1596
     80  C        -20.9840   21.3470  -61.1920 C.2   111  LEU111      0.2287
     81  O        -21.4120   20.7850  -60.2130 O.2   111  LEU111     -0.2864
     82  CB       -20.6420   19.0430  -62.0900 C.3   111  LEU111      0.0297
     83  CG       -20.3230   18.1320  -63.2720 C.3   111  LEU111      0.0022
     84  CD1      -20.6530   16.6730  -62.9470 C.3   111  LEU111      0.0001
     85  CD2      -21.0450   18.5840  -64.5400 C.3   111  LEU111      0.0001
     86  N        -11.0720   20.0390  -63.4980 N.3   137  SER137     -0.1202
     87  CA       -12.0780   19.5080  -64.4240 C.3   137  SER137      0.2020
     88  C        -11.3420   18.9480  -65.6280 C.2   137  SER137      0.2619
     89  O        -10.6230   19.6750  -66.2970 O.2   137  SER137     -0.2717
     90  CB       -13.0640   20.5800  -64.9040 C.3   137  SER137      0.2103
     91  OG       -13.7050   20.1640  -66.1190 O.3   137  SER137     -0.2182
     92  N        -11.5160   17.6590  -65.8910 N.am  138  ALA138     -0.1965
     93  CA       -10.9350   17.0450  -67.0510 C.3   138  ALA138      0.1728
     94  C        -11.6240   17.4780  -68.3510 C.2   138  ALA138      0.2616
     95  O        -10.9920   17.5140  -69.4020 O.2   138  ALA138     -0.2715
     96  CB       -11.0110   15.5630  -66.9070 C.3   138  ALA138      0.0334
     97  N        -12.9210   17.7800  -68.2880 N.am  139  THR139     -0.1951
     98  CA       -13.6990   18.1190  -69.4840 C.3   139  THR139      0.1897
     99  C        -13.5090   19.5790  -69.9010 C.2   139  THR139      0.2313
    100  O        -13.5710   19.8920  -71.0920 O.2   139  THR139     -0.2863
    101  CB       -15.1810   17.8020  -69.2690 C.3   139  THR139      0.1794
    102  OG1      -15.6690   18.5190  -68.1310 O.3   139  THR139     -0.2208
    103  CG2      -15.3840   16.2970  -69.0210 C.3   139  THR139      0.0378
@<TRIPOS>BOND
     1   100    99    2
     2    99    98    1
     3    98   101    1
     4    98    97    1
     5    95    94    2
     6   101   103    1
     7   101   102    1
     8    38    36    1
     9    94    97   am
    10    94    93    1
    11    42    41    2
    12    35    34    2
    13    44    43    1
    14    40    43    1
    15    40    41    1
    16    40    39    1
    17    34    39   am
    18    34    33    1
    19    36    33    1
    20    36    37    1
    21    93    96    1
    22    93    92    1
    23    33    32    1
    24    89    88    2
    25    91    90    1
    26    77    75   ar
    27    92    88   am
    28    88    87    1
    29    52    50   ar
    30    75    74    1
    31    75    76   ar
    32    74    71    1
    33    32    25   am
    34    90    87    1
    35    26    25    2
    36    85    83    1
    37    50    49    1
    38    50    51   ar
    39    87    86    1
    40    49    46    1
    41    25    24    1
    42    22    21    2
    43    48    47    2
    44    73    72    2
    45    71    72    1
    46    71    70    1
    47    21    20    1
    48    21    23   am
    49    72    78   am
    50    20    19    1
    51    45    46    1
    52    83    84    1
    53    83    82    1
    54    47    46    1
    55    23    24    1
    56    69    68    1
    57    68    67    1
    58    24    27    1
    59    60    58   am
    60    78    79    1
    61    59    58    2
    62    19    14   am
    63    67    66    1
    64    79    82    1
    65    79    80    1
    66    11    10    2
    67    66    65    1
    68    58    57    1
    69     9    10    1
    70     9     8    1
    71    27    28    1
    72    62    65    1
    73    62    61    1
    74    62    63    1
    75    10    12   am
    76     8     3   am
    77    61    55   am
    78    14    15    2
    79    14    13    1
    80    63    64    2
    81    80    81    2
    82    12    13    1
    83    57    54    1
    84    28    29    1
    85    13    16    1
    86     3     2    1
    87     3     4    2
    88     5     2    1
    89     5     6    1
    90    55    54    1
    91    55    56    2
    92    31    30    1
    93     2     1    1
    94    30    29    1
    95    54    53    1
    96    18    16    1
    97     6     7    1
    98    16    17    1
    99     1     7    1
