@<TRIPOS>MOLECULE
tmp/2nztB02.pdb
 135 127 0 0 0
SMALL
GASTEIGER

@<TRIPOS>ATOM
      1  N        -21.5630   14.3440   -4.7700 N.3   500  GLY500     -0.1210
      2  CA       -22.7980   13.5820   -4.8560 C.3   500  GLY500      0.1956
      3  C        -22.8100   12.2810   -4.0670 C.2   500  GLY500      0.2612
      4  O        -23.8860   11.6780   -3.8720 O.2   500  GLY500     -0.2717
      5  N        -21.6150   11.8250   -3.6670 N.am  501  GLY501     -0.1956
      6  CA       -21.4690   10.7600   -2.7000 C.3   501  GLY501      0.1869
      7  C        -21.5910   11.2480   -1.2600 C.2   501  GLY501      0.2309
      8  O        -22.1370   12.3200   -1.0040 O.2   501  GLY501     -0.2863
      9  N        -22.2540   13.2800   -9.5320 N.3   562  SER562     -0.1202
     10  CA       -22.9380   11.9870   -9.4250 C.3   562  SER562      0.2020
     11  C        -24.4370   12.1100   -9.6430 C.2   562  SER562      0.2619
     12  O        -25.2430   11.6320   -8.8000 O.2   562  SER562     -0.2717
     13  CB       -22.7060   11.3810   -8.0430 C.3   562  SER562      0.2103
     14  OG       -21.3750   11.5460   -7.6240 O.3   562  SER562     -0.2182
     15  N        -24.8230   12.7380  -10.7600 N.am  563  PHE563     -0.1962
     16  CA       -26.2360   12.9950  -11.0580 C.3   563  PHE563      0.1756
     17  C        -26.4870   12.8160  -12.5230 C.2   563  PHE563      0.2461
     18  O        -25.5590   12.8290  -13.2980 O.2   563  PHE563     -0.2730
     19  CB       -26.5990   14.3990  -10.5940 C.3   563  PHE563      0.0574
     20  CG       -26.3540   14.6130   -9.1360 C.ar  563  PHE563     -0.0200
     21  CD1      -27.2870   14.2310   -8.2060 C.ar  563  PHE563     -0.0042
     22  CD2      -25.1700   15.1520   -8.6960 C.ar  563  PHE563     -0.0042
     23  CE1      -27.0470   14.3960   -6.8640 C.ar  563  PHE563     -0.0003
     24  CE2      -24.9220   15.3020   -7.3860 C.ar  563  PHE563     -0.0003
     25  CZ       -25.8730   14.9220   -6.4560 C.ar  563  PHE563     -0.0000
     26  N        -27.7430   12.6210  -12.9110 N.am  564  PRO564     -0.2727
     27  CA       -28.0160   12.4060  -14.3300 C.3   564  PRO564      0.1402
     28  C        -27.8380   13.6870  -15.0890 C.2   564  PRO564      0.2269
     29  O        -28.4720   14.6760  -14.7600 O.2   564  PRO564     -0.2865
     30  CB       -29.4790   11.9760  -14.3460 C.3   564  PRO564      0.0296
     31  CG       -30.0470   12.4950  -13.0880 C.3   564  PRO564      0.0237
     32  CD       -28.9710   12.5740  -12.0960 C.3   564  PRO564      0.0939
     33  N        -31.0620   13.8810   -7.6830 N.3   579  THR579     -0.1203
     34  CA       -31.4390   12.6060   -7.1370 C.3   579  THR579      0.1994
     35  C        -30.8220   12.5360   -5.7760 C.2   579  THR579      0.2617
     36  O        -30.1280   13.4260   -5.3730 O.2   579  THR579     -0.2717
     37  CB       -30.9370   11.4370   -7.9720 C.3   579  THR579      0.1784
     38  OG1      -29.5220   11.4400   -7.9830 O.3   579  THR579     -0.2211
     39  CG2      -31.4080   11.5100   -9.3600 C.3   579  THR579      0.0376
     40  N        -31.0620   11.4590   -5.0660 N.am  580  LYS580     -0.1979
     41  CA       -30.5860   11.3390   -3.7100 C.3   580  LYS580      0.1596
     42  C        -31.1220   12.5310   -2.9250 C.2   580  LYS580      0.2287
     43  O        -32.3100   12.8370   -3.0160 O.2   580  LYS580     -0.2864
     44  CB       -29.0510   11.1950   -3.6720 C.3   580  LYS580      0.0298
     45  CG       -28.5310    9.9700   -4.4490 C.3   580  LYS580      0.0038
     46  CD       -27.0140   10.0230   -4.6600 C.3   580  LYS580      0.0206
     47  CE       -26.6330   10.7470   -5.9440 C.3   580  LYS580      0.1093
     48  NZ       -25.1680   10.7630   -6.1420 N.3   580  LYS580     -0.1314
     49  N        -19.7540   11.2440  -14.5200 N.3   610  ASN610     -0.1225
     50  CA       -20.5210   10.5960  -13.4600 C.3   610  ASN610      0.1785
     51  C        -19.5350    9.7850  -12.5590 C.2   610  ASN610      0.2597
     52  O        -18.4200    9.5230  -12.9650 O.2   610  ASN610     -0.2718
     53  CB       -21.5880    9.7110  -14.1170 C.3   610  ASN610      0.1169
     54  CG       -22.5360    9.0540  -13.1210 C.2   610  ASN610      0.2627
     55  OD1      -22.5550    7.8230  -12.9930 O.2   610  ASN610     -0.2716
     56  ND2      -23.3340    9.8430  -12.4440 N.am  610  ASN610     -0.0877
     57  N        -19.9390    9.4080  -11.3480 N.am  611  ASP611     -0.1960
     58  CA       -19.0800    8.5780  -10.4870 C.3   611  ASP611      0.1840
     59  C        -18.8830    7.1450  -11.0200 C.2   611  ASP611      0.2622
     60  O        -17.8160    6.5590  -10.8350 O.2   611  ASP611     -0.2715
     61  CB       -19.6050    8.5340   -9.0500 C.3   611  ASP611      0.1450
     62  CG       -21.0980    8.3150   -8.9780 C.2   611  ASP611      0.3671
     63  OD1      -21.7430    8.3060  -10.0470 O.co2 611  ASP611     -0.2456
     64  OD2      -21.6210    8.1510   -7.8500 O.co2 611  ASP611     -0.2456
     65  N        -19.8920    6.5700  -11.6640 N.am  612  THR612     -0.1951
     66  CA       -19.7380    5.2540  -12.2600 C.3   612  THR612      0.1897
     67  C        -18.6030    5.2680  -13.2690 C.2   612  THR612      0.2313
     68  O        -17.7890    4.3520  -13.3420 O.2   612  THR612     -0.2863
     69  CB       -21.0050    4.8180  -13.0020 C.3   612  THR612      0.1794
     70  OG1      -21.2390    5.6910  -14.1220 O.3   612  THR612     -0.2208
     71  CG2      -22.1630    4.8500  -12.0760 C.3   612  THR612      0.0378
     72  N        -21.9320    1.5690   -8.9260 N.3   631  ILE631     -0.1245
     73  CA       -21.9500    2.2570   -7.6580 C.3   631  ILE631      0.1561
     74  C        -23.0960    1.7330   -6.8680 C.2   631  ILE631      0.2260
     75  O        -24.2070    1.6940   -7.3630 O.2   631  ILE631     -0.2867
     76  CB       -22.1520    3.7540   -7.8220 C.3   631  ILE631      0.0252
     77  CG1      -20.9030    4.3860   -8.4480 C.3   631  ILE631      0.0019
     78  CG2      -22.4060    4.3830   -6.4820 C.3   631  ILE631      0.0019
     79  CD1      -19.6490    4.4050   -7.5430 C.3   631  ILE631      0.0001
     80  N        -24.9000    5.6740   -1.6830 N.3   634  THR634     -0.1203
     81  CA       -26.0920    6.4420   -1.3650 C.3   634  THR634      0.1994
     82  C        -27.1820    6.1450   -2.4030 C.2   634  THR634      0.2618
     83  O        -28.3600    5.8780   -2.0640 O.2   634  THR634     -0.2717
     84  CB       -25.7020    7.9460   -1.2940 C.3   634  THR634      0.1784
     85  OG1      -24.4920    8.0850   -0.5220 O.3   634  THR634     -0.2211
     86  CG2      -26.8050    8.8090   -0.6400 C.3   634  THR634      0.0376
     87  N        -26.7650    6.1420   -3.6680 N.am  635  GLY635     -0.1942
     88  CA       -27.6070    5.6730   -4.7750 C.3   635  GLY635      0.2014
     89  C        -26.9630    4.5090   -5.4940 C.2   635  GLY635      0.2640
     90  O        -25.8820    4.0830   -5.1420 O.2   635  GLY635     -0.2714
     91  N        -27.6140    4.0100   -6.5310 N.am  636  SER636     -0.1935
     92  CA       -27.0170    2.9790   -7.4010 C.3   636  SER636      0.2055
     93  C        -27.1430    3.3270   -8.8620 C.2   636  SER636      0.2643
     94  O        -28.1780    3.8050   -9.3070 O.2   636  SER636     -0.2714
     95  CB       -27.6820    1.6240   -7.1990 C.3   636  SER636      0.2130
     96  OG       -26.8660    0.6080   -7.7160 O.3   636  SER636     -0.2179
     97  N        -26.0920    3.0190   -9.6140 N.am  637  ASN637     -0.1971
     98  CA       -25.9880    3.3560  -11.0140 C.3   637  ASN637      0.1688
     99  C        -24.8710    2.4920  -11.6020 C.2   637  ASN637      0.2292
    100  O        -24.0030    2.0170  -10.8870 O.2   637  ASN637     -0.2864
    101  CB       -25.6980    4.8680  -11.1930 C.3   637  ASN637      0.1181
    102  CG       -25.8200    5.3550  -12.6580 C.2   637  ASN637      0.2629
    103  OD1      -26.4230    4.7220  -13.5190 O.2   637  ASN637     -0.2716
    104  ND2      -25.2680    6.5080  -12.9080 N.am  637  ASN637     -0.0877
    105  N        -27.8080    5.4000  -15.8740 N.3   662  GLU662     -0.1245
    106  CA       -28.7280    5.9850  -14.9070 C.3   662  GLU662      0.1567
    107  C        -29.7880    5.0000  -14.5910 C.2   662  GLU662      0.2260
    108  O        -30.9540    5.2820  -14.7200 O.2   662  GLU662     -0.2867
    109  CB       -29.3090    7.3380  -15.3740 C.3   662  GLU662      0.0388
    110  CG       -28.2970    8.5190  -15.2690 C.3   662  GLU662      0.1160
    111  CD       -27.7800    8.7900  -13.8590 C.2   662  GLU662      0.3649
    112  OE1      -28.5780    8.6630  -12.8910 O.co2 662  GLU662     -0.2457
    113  OE2      -26.5840    9.1610  -13.7370 O.co2 662  GLU662     -0.2457
    114  N        -30.8480    3.7710  -11.8250 N.3   664  GLY664     -0.1225
    115  CA       -31.6920    3.9980  -10.6710 C.3   664  GLY664      0.1811
    116  C        -33.1230    4.2700  -11.0480 C.2   664  GLY664      0.2280
    117  O        -34.0090    4.0120  -10.2740 O.2   664  GLY664     -0.2866
    118  N        -36.4060    7.3090   -9.4920 N.3   693  GLN693     -0.1245
    119  CA       -35.2950    6.5150   -8.9680 C.3   693  GLN693      0.1566
    120  C        -35.8110    5.3120   -8.1980 C.2   693  GLN693      0.2260
    121  O        -35.3390    5.0170   -7.1160 O.2   693  GLN693     -0.2867
    122  CB       -34.3620    7.3900   -8.1000 C.3   693  GLN693      0.0367
    123  CG       -33.7660    8.5770   -8.8490 C.3   693  GLN693      0.0905
    124  CD       -32.8100    8.1700   -9.9470 C.2   693  GLN693      0.2608
    125  OE1      -33.0730    8.3720  -11.1340 O.2   693  GLN693     -0.2717
    126  NE2      -31.6930    7.5910   -9.5570 N.am  693  GLN693     -0.0878
    127  N        -33.2490    2.1450   -7.8520 N.3   696  GLU696     -0.1245
    128  CA       -32.3030    2.6020   -6.8470 C.3   696  GLU696      0.1567
    129  C        -32.8830    2.5570   -5.4630 C.2   696  GLU696      0.2260
    130  O        -32.1810    2.2330   -4.5460 O.2   696  GLU696     -0.2867
    131  CB       -31.8960    4.0280   -7.1730 C.3   696  GLU696      0.0388
    132  CG       -31.2820    4.8370   -6.0890 C.3   696  GLU696      0.1160
    133  CD       -30.7630    6.1760   -6.6490 C.2   696  GLU696      0.3649
    134  OE1      -29.6170    6.2340   -7.1160 O.co2 696  GLU696     -0.2457
    135  OE2      -31.5210    7.1660   -6.6340 O.co2 696  GLU696     -0.2457
@<TRIPOS>BOND
     1   105   106    1
     2   109   110    1
     3   109   106    1
     4   110   111    1
     5    28    29    2
     6    28    27    1
     7   106   107    1
     8   108   107    2
     9    49    50    1
    10    30    27    1
    11    30    31    1
    12    27    26    1
    13    70    69    1
    14    53    50    1
    15    53    54    1
    16   111   113   ar
    17   111   112   ar
    18   103   102    2
    19    50    51    1
    20    68    67    2
    21    18    17    2
    22    67    66    1
    23    54    55    2
    24    54    56   am
    25    31    32    1
    26    69    66    1
    27    69    71    1
    28    52    51    2
    29    26    17   am
    30    26    32    1
    31   104   102   am
    32   102   101    1
    33    51    57   am
    34    17    16    1
    35    66    65    1
    36   114   115    1
    37    65    59   am
    38    99    98    1
    39    99   100    2
    40    57    58    1
    41   101    98    1
    42   125   124    2
    43    16    15    1
    44    16    19    1
    45   116   115    1
    46   116   117    2
    47    59    60    2
    48    59    58    1
    49    98    97    1
    50    15    11   am
    51    19    20    1
    52    58    61    1
    53    63    62   ar
    54   124   126   am
    55   124   123    1
    56    11    10    1
    57    11    12    2
    58    97    93   am
    59     9    10    1
    60   118   119    1
    61    10    13    1
    62    39    37    1
    63    94    93    2
    64    20    22   ar
    65    20    21   ar
    66    61    62    1
    67    62    64   ar
    68   119   120    1
    69   119   122    1
    70    72    73    1
    71    93    92    1
    72   123   122    1
    73    22    24   ar
    74    77    76    1
    75    77    79    1
    76    21    23   ar
    77   120   121    2
    78    13    14    1
    79    38    37    1
    80    37    34    1
    81   127   128    1
    82    76    73    1
    83    76    78    1
    84    96    95    1
    85    33    34    1
    86    73    74    1
    87    92    95    1
    88    92    91    1
    89    24    25   ar
    90    75    74    2
    91   131   128    1
    92   131   132    1
    93    34    35    1
    94   134   133   ar
    95    23    25   ar
    96   128   129    1
    97   133   135   ar
    98   133   132    1
    99    91    89   am
   100    48    47    1
   101    47    46    1
   102    35    36    2
   103    35    40   am
   104    89    90    2
   105    89    88    1
   106   129   130    2
   107    40    41    1
   108     2     1    1
   109     2     3    1
   110    88    87    1
   111    46    45    1
   112    45    44    1
   113     3     4    2
   114     3     5   am
   115    41    44    1
   116    41    42    1
   117    87    82   am
   118     5     6    1
   119    43    42    2
   120     6     7    1
   121    82    83    2
   122    82    81    1
   123    80    81    1
   124    81    84    1
   125    84    86    1
   126    84    85    1
   127     7     8    2
