@<TRIPOS>MOLECULE
tmp/2nztB03.pdb
 85 77 0 0 0
SMALL
GASTEIGER

@<TRIPOS>ATOM
      1  N        -15.1910   15.7130   -6.3900 N.3   498  ASP498     -0.1239
      2  CA       -16.0020   14.5190   -6.1760 C.3   498  ASP498      0.1674
      3  C        -17.2760   14.9110   -5.4360 C.2   498  ASP498      0.2266
      4  O        -17.2670   15.0290   -4.2380 O.2   498  ASP498     -0.2867
      5  CB       -15.1800   13.4750   -5.4090 C.3   498  ASP498      0.1410
      6  CG       -15.7960   12.0650   -5.4390 C.2   498  ASP498      0.3668
      7  OD1      -15.2870   11.2280   -4.6420 O.co2 498  ASP498     -0.2456
      8  OD2      -16.7570   11.7860   -6.2410 O.co2 498  ASP498     -0.2456
      9  N        -21.6150   11.8250   -3.6670 N.3   501  GLY501     -0.1210
     10  CA       -21.4690   10.7600   -2.7000 C.3   501  GLY501      0.1956
     11  C        -21.5910   11.2480   -1.2600 C.2   501  GLY501      0.2612
     12  O        -22.1370   12.3200   -1.0040 O.2   501  GLY501     -0.2717
     13  N        -21.1040   10.4620   -0.3000 N.am  502  THR502     -0.1952
     14  CA       -21.3060   10.8030    1.1270 C.3   502  THR502      0.1897
     15  C        -20.4890   12.0320    1.4920 C.2   502  THR502      0.2313
     16  O        -20.9280   12.8560    2.2990 O.2   502  THR502     -0.2863
     17  CB       -21.0510    9.5680    2.0850 C.3   502  THR502      0.1794
     18  OG1      -19.8070    8.9940    1.8230 O.3   502  THR502     -0.2208
     19  CG2      -22.0850    8.4390    1.8370 C.3   502  THR502      0.0378
     20  N        -22.2540   13.2800   -9.5320 N.3   562  SER562     -0.1217
     21  CA       -22.9380   11.9870   -9.4250 C.3   562  SER562      0.1889
     22  C        -24.4370   12.1100   -9.6430 C.2   562  SER562      0.2288
     23  O        -25.2430   11.6320   -8.8000 O.2   562  SER562     -0.2866
     24  CB       -22.7060   11.3810   -8.0430 C.3   562  SER562      0.2089
     25  OG       -21.3750   11.5460   -7.6240 O.3   562  SER562     -0.2183
     26  N        -19.9390    9.4080  -11.3480 N.3   611  ASP611     -0.1239
     27  CA       -19.0800    8.5780  -10.4870 C.3   611  ASP611      0.1674
     28  C        -18.8830    7.1450  -11.0200 C.2   611  ASP611      0.2266
     29  O        -17.8160    6.5590  -10.8350 O.2   611  ASP611     -0.2867
     30  CB       -19.6050    8.5340   -9.0500 C.3   611  ASP611      0.1410
     31  CG       -21.0980    8.3150   -8.9780 C.2   611  ASP611      0.3668
     32  OD1      -21.7430    8.3060  -10.0470 O.co2 611  ASP611     -0.2456
     33  OD2      -21.6210    8.1510   -7.8500 O.co2 611  ASP611     -0.2456
     34  N        -21.9320    1.5690   -8.9260 N.3   631  ILE631     -0.1245
     35  CA       -21.9500    2.2570   -7.6580 C.3   631  ILE631      0.1561
     36  C        -23.0960    1.7330   -6.8680 C.2   631  ILE631      0.2260
     37  O        -24.2070    1.6940   -7.3630 O.2   631  ILE631     -0.2867
     38  CB       -22.1520    3.7540   -7.8220 C.3   631  ILE631      0.0252
     39  CG1      -20.9030    4.3860   -8.4480 C.3   631  ILE631      0.0019
     40  CG2      -22.4060    4.3830   -6.4820 C.3   631  ILE631      0.0019
     41  CD1      -19.6490    4.4050   -7.5430 C.3   631  ILE631      0.0001
     42  N        -23.8640    2.8950   -3.2750 N.3   633  GLY633     -0.1210
     43  CA       -23.5950    3.6830   -2.0970 C.3   633  GLY633      0.1956
     44  C        -24.8850    4.3460   -1.7000 C.2   633  GLY633      0.2613
     45  O        -25.8550    3.6730   -1.4290 O.2   633  GLY633     -0.2717
     46  N        -24.9000    5.6740   -1.6830 N.am  634  THR634     -0.1938
     47  CA       -26.0920    6.4420   -1.3650 C.3   634  THR634      0.2028
     48  C        -27.1820    6.1450   -2.4030 C.2   634  THR634      0.2642
     49  O        -28.3600    5.8780   -2.0640 O.2   634  THR634     -0.2714
     50  CB       -25.7020    7.9460   -1.2940 C.3   634  THR634      0.1808
     51  OG1      -24.4920    8.0850   -0.5220 O.3   634  THR634     -0.2208
     52  CG2      -26.8050    8.8090   -0.6400 C.3   634  THR634      0.0379
     53  N        -26.7650    6.1420   -3.6680 N.am  635  GLY635     -0.1954
     54  CA       -27.6070    5.6730   -4.7750 C.3   635  GLY635      0.1869
     55  C        -26.9630    4.5090   -5.4940 C.2   635  GLY635      0.2309
     56  O        -25.8820    4.0830   -5.1420 O.2   635  GLY635     -0.2863
     57  N        -17.6940    1.0130   -6.3910 N.3   815  ASP815     -0.1225
     58  CA       -17.4470    1.8100   -5.1940 C.3   815  ASP815      0.1805
     59  C        -18.7870    2.0210   -4.5450 C.2   815  ASP815      0.2598
     60  O        -19.7810    1.5910   -5.0930 O.2   815  ASP815     -0.2718
     61  CB       -16.7580    3.1370   -5.5350 C.3   815  ASP815      0.1424
     62  CG       -15.9050    3.6890   -4.3820 C.2   815  ASP815      0.3668
     63  OD1      -16.0660    3.2350   -3.2200 O.co2 815  ASP815     -0.2456
     64  OD2      -15.0690    4.5880   -4.6570 O.co2 815  ASP815     -0.2456
     65  N        -18.8060    2.6260   -3.3650 N.am  816  GLY816     -0.1942
     66  CA       -20.0440    2.8100   -2.6110 C.3   816  GLY816      0.2014
     67  C        -19.9000    2.1970   -1.2450 C.2   816  GLY816      0.2639
     68  O        -19.3440    1.1630   -1.1190 O.2   816  GLY816     -0.2714
     69  N        -20.4190    2.8430   -0.2230 N.am  817  THR817     -0.1950
     70  CA       -20.2530    2.3830    1.1500 C.3   817  THR817      0.1897
     71  C        -21.0880    1.1610    1.4950 C.2   817  THR817      0.2313
     72  O        -20.7320    0.4270    2.3930 O.2   817  THR817     -0.2863
     73  CB       -20.6050    3.4980    2.1330 C.3   817  THR817      0.1794
     74  OG1      -21.8270    4.0940    1.7200 O.3   817  THR817     -0.2208
     75  CG2      -19.5230    4.5930    2.1250 C.3   817  THR817      0.0378
     76  N        -11.2730    6.2250   -5.0790 N.3   850  GLY850     -0.1210
     77  CA       -12.4080    7.1030   -5.3440 C.3   850  GLY850      0.1956
     78  C        -12.4650    7.4690   -6.8070 C.2   850  GLY850      0.2612
     79  O        -11.5120    7.2260   -7.5580 O.2   850  GLY850     -0.2717
     80  N        -13.5990    8.0430   -7.2020 N.am  851  SER851     -0.1952
     81  CA       -13.8290    8.4710   -8.5600 C.3   851  SER851      0.1924
     82  C        -12.8170    9.5090   -9.0080 C.2   851  SER851      0.2314
     83  O        -12.4620    9.5350  -10.1580 O.2   851  SER851     -0.2863
     84  CB       -15.2350    9.0270   -8.7140 C.3   851  SER851      0.2116
     85  OG       -16.1980    8.0090   -8.5520 O.3   851  SER851     -0.2180
@<TRIPOS>BOND
     1    26    27    1
     2    28    29    2
     3    28    27    1
     4    27    30    1
     5    83    82    2
     6    32    31   ar
     7    22    21    1
     8    22    23    2
     9    20    21    1
    10    21    24    1
    11    30    31    1
    12    82    81    1
    13    31    33   ar
    14    34    35    1
    15    84    81    1
    16    84    85    1
    17    81    80    1
    18    39    38    1
    19    39    41    1
    20    24    25    1
    21    38    35    1
    22    38    40    1
    23    35    36    1
    24    79    78    2
    25    37    36    2
    26    80    78   am
    27    78    77    1
    28    57    58    1
    29     1     2    1
    30     8     6   ar
    31     2     3    1
    32     2     5    1
    33    61    58    1
    34    61    62    1
    35    55    56    2
    36    55    54    1
    37     6     5    1
    38     6     7   ar
    39     3     4    2
    40    77    76    1
    41    58    59    1
    42    60    59    2
    43    54    53    1
    44    64    62   ar
    45    59    65   am
    46    62    63   ar
    47    53    48   am
    48     9    10    1
    49    65    66    1
    50    42    43    1
    51    10    11    1
    52    66    67    1
    53    48    49    2
    54    48    47    1
    55    43    44    1
    56    44    46   am
    57    44    45    2
    58    46    47    1
    59    47    50    1
    60    50    52    1
    61    50    51    1
    62    11    12    2
    63    11    13   am
    64    67    68    2
    65    67    69   am
    66    13    14    1
    67    69    70    1
    68    14    15    1
    69    14    17    1
    70    70    71    1
    71    70    73    1
    72    15    16    2
    73    71    72    2
    74    74    73    1
    75    18    17    1
    76    19    17    1
    77    75    73    1
