@<TRIPOS>MOLECULE
tmp/2nztA02.pdb
 135 127 0 0 0
SMALL
GASTEIGER

@<TRIPOS>ATOM
      1  N        -20.9480  -59.1240   39.2950 N.3   503  GLY503     -0.1210
      2  CA       -19.6460  -58.8140   38.6940 C.3   503  GLY503      0.1956
      3  C        -19.4840  -57.5090   37.9340 C.2   503  GLY503      0.2612
      4  O        -18.4040  -57.2350   37.4330 O.2   503  GLY503     -0.2717
      5  N        -20.5670  -56.7290   37.8370 N.am  504  GLY504     -0.1956
      6  CA       -20.5610  -55.3660   37.2730 C.3   504  GLY504      0.1869
      7  C        -20.7330  -54.3730   38.3930 C.2   504  GLY504      0.2309
      8  O        -20.3310  -54.6440   39.5170 O.2   504  GLY504     -0.2863
      9  N        -20.0670  -62.7120   35.9950 N.3   564  SER564     -0.1202
     10  CA       -19.3500  -62.1070   34.8850 C.3   564  SER564      0.2020
     11  C        -17.8310  -62.1900   35.0470 C.2   564  SER564      0.2619
     12  O        -17.1590  -61.1660   35.1130 O.2   564  SER564     -0.2717
     13  CB       -19.8430  -60.6830   34.6940 C.3   564  SER564      0.2103
     14  OG       -20.0590  -60.0410   35.9300 O.3   564  SER564     -0.2182
     15  N        -17.3300  -63.4410   35.1000 N.am  565  PHE565     -0.1962
     16  CA       -15.8960  -63.7970   35.1760 C.3   565  PHE565      0.1756
     17  C        -15.5810  -65.0340   34.2820 C.2   565  PHE565      0.2461
     18  O        -16.4860  -65.7640   33.9310 O.2   565  PHE565     -0.2730
     19  CB       -15.5250  -64.0840   36.6290 C.3   565  PHE565      0.0574
     20  CG       -15.9120  -62.9620   37.5740 C.ar  565  PHE565     -0.0200
     21  CD1      -15.0800  -61.8810   37.7680 C.ar  565  PHE565     -0.0042
     22  CD2      -17.1170  -62.9840   38.2330 C.ar  565  PHE565     -0.0042
     23  CE1      -15.4320  -60.8680   38.5860 C.ar  565  PHE565     -0.0003
     24  CE2      -17.4710  -61.9670   39.0650 C.ar  565  PHE565     -0.0003
     25  CZ       -16.6300  -60.9050   39.2460 C.ar  565  PHE565     -0.0000
     26  N        -14.3030  -65.2680   33.9180 N.am  566  PRO566     -0.2727
     27  CA       -13.9600  -66.4330   33.1320 C.3   566  PRO566      0.1402
     28  C        -14.1710  -67.7320   33.8980 C.2   566  PRO566      0.2269
     29  O        -13.5420  -67.9580   34.9330 O.2   566  PRO566     -0.2865
     30  CB       -12.4590  -66.2520   32.8810 C.3   566  PRO566      0.0296
     31  CG       -12.0190  -65.4310   33.9550 C.3   566  PRO566      0.0237
     32  CD       -13.1040  -64.4820   34.2160 C.3   566  PRO566      0.0939
     33  N        -11.4530  -61.4750   37.7750 N.3   581  THR581     -0.1203
     34  CA       -11.0120  -60.3370   37.0130 C.3   581  THR581      0.1994
     35  C        -11.6330  -59.0840   37.6090 C.2   581  THR581      0.2617
     36  O        -12.3570  -59.1530   38.6010 O.2   581  THR581     -0.2717
     37  CB       -11.3530  -60.4580   35.5080 C.3   581  THR581      0.1784
     38  OG1      -12.7320  -60.7110   35.3560 O.3   581  THR581     -0.2211
     39  CG2      -10.6060  -61.5470   34.8840 C.3   581  THR581      0.0376
     40  N        -11.3130  -57.9310   37.0080 N.am  582  LYS582     -0.1979
     41  CA       -11.8290  -56.6690   37.4620 C.3   582  LYS582      0.1596
     42  C        -11.3440  -56.5020   38.9030 C.2   582  LYS582      0.2287
     43  O        -10.1400  -56.6610   39.1620 O.2   582  LYS582     -0.2864
     44  CB       -13.3720  -56.5990   37.2900 C.3   582  LYS582      0.0298
     45  CG       -13.8280  -56.7060   35.8280 C.3   582  LYS582      0.0038
     46  CD       -15.3300  -56.8060   35.6980 C.3   582  LYS582      0.0206
     47  CE       -15.8390  -58.2470   35.7910 C.3   582  LYS582      0.1093
     48  NZ       -17.2810  -58.4480   35.5340 N.3   582  LYS582     -0.1314
     49  N        -22.2310  -65.9960   31.6450 N.3   614  ASN614     -0.1225
     50  CA       -21.4370  -64.7330   31.6730 C.3   614  ASN614      0.1785
     51  C        -22.3620  -63.5710   31.3700 C.2   614  ASN614      0.2597
     52  O        -23.4420  -63.7850   30.8120 O.2   614  ASN614     -0.2718
     53  CB       -20.3080  -64.8040   30.6220 C.3   614  ASN614      0.1169
     54  CG       -19.3780  -63.5990   30.6410 C.2   614  ASN614      0.2627
     55  OD1      -19.3680  -62.8010   29.7000 O.2   614  ASN614     -0.2716
     56  ND2      -18.5780  -63.4800   31.6870 N.am  614  ASN614     -0.0877
     57  N        -21.9880  -62.3480   31.7340 N.am  615  ASP615     -0.1960
     58  CA       -22.8600  -61.2300   31.3880 C.3   615  ASP615      0.1840
     59  C        -23.0200  -61.0820   29.8730 C.2   615  ASP615      0.2622
     60  O        -24.0950  -60.7070   29.4060 O.2   615  ASP615     -0.2715
     61  CB       -22.4280  -59.9140   32.0300 C.3   615  ASP615      0.1450
     62  CG       -20.9790  -59.6710   31.9360 C.2   615  ASP615      0.3671
     63  OD1      -20.2700  -60.5250   31.4320 O.co2 615  ASP615     -0.2456
     64  OD2      -20.5410  -58.6280   32.4180 O.co2 615  ASP615     -0.2456
     65  N        -21.9900  -61.4040   29.1010 N.am  616  THR616     -0.1951
     66  CA       -22.0820  -61.2410   27.6650 C.3   616  THR616      0.1897
     67  C        -23.2130  -62.1350   27.1450 C.2   616  THR616      0.2313
     68  O        -24.0780  -61.7040   26.3720 O.2   616  THR616     -0.2863
     69  CB       -20.7440  -61.5510   26.9510 C.3   616  THR616      0.1794
     70  OG1      -20.3520  -62.8960   27.1960 O.3   616  THR616     -0.2208
     71  CG2      -19.6460  -60.6360   27.4120 C.3   616  THR616      0.0378
     72  N        -19.8240  -56.5030   26.1510 N.3   635  ILE635     -0.1245
     73  CA       -19.8890  -55.7010   27.3590 C.3   635  ILE635      0.1561
     74  C        -18.7760  -54.7110   27.2940 C.2   635  ILE635      0.2260
     75  O        -17.6580  -55.0610   26.9440 O.2   635  ILE635     -0.2867
     76  CB       -19.8120  -56.5440   28.6570 C.3   635  ILE635      0.0252
     77  CG1      -21.0090  -57.4990   28.7490 C.3   635  ILE635      0.0019
     78  CG2      -19.7860  -55.6420   29.8620 C.3   635  ILE635      0.0019
     79  CD1      -22.3060  -56.8650   29.0350 C.3   635  ILE635      0.0001
     80  N        -17.4310  -52.0820   33.3980 N.3   638  THR638     -0.1203
     81  CA       -16.3020  -52.2220   34.3200 C.3   638  THR638      0.1994
     82  C        -15.1650  -52.9750   33.6450 C.2   638  THR638      0.2618
     83  O        -14.0110  -52.5700   33.7050 O.2   638  THR638     -0.2717
     84  CB       -16.7570  -52.9820   35.5800 C.3   638  THR638      0.1784
     85  OG1      -17.8920  -52.3120   36.1490 O.3   638  THR638     -0.2211
     86  CG2      -15.6430  -53.0530   36.6040 C.3   638  THR638      0.0376
     87  N        -15.5130  -54.0850   33.0110 N.am  639  GLY639     -0.1942
     88  CA       -14.5770  -54.8580   32.1830 C.3   639  GLY639      0.2014
     89  C        -15.1400  -54.8610   30.7850 C.2   639  GLY639      0.2640
     90  O        -16.1630  -54.2590   30.5460 O.2   639  GLY639     -0.2714
     91  N        -14.4840  -55.5200   29.8530 N.am  640  SER640     -0.1935
     92  CA       -15.0480  -55.6420   28.5250 C.3   640  SER640      0.2055
     93  C        -14.8370  -57.0440   28.0160 C.2   640  SER640      0.2643
     94  O        -13.8480  -57.6730   28.3380 O.2   640  SER640     -0.2714
     95  CB       -14.4030  -54.6290   27.5860 C.3   640  SER640      0.2130
     96  OG       -14.9190  -54.7350   26.2910 O.3   640  SER640     -0.2179
     97  N        -15.7500  -57.5280   27.1900 N.am  641  ASN641     -0.1971
     98  CA       -15.7230  -58.9440   26.7660 C.3   641  ASN641      0.1688
     99  C        -16.8130  -59.1300   25.7510 C.2   641  ASN641      0.2292
    100  O        -17.6890  -58.2590   25.6270 O.2   641  ASN641     -0.2864
    101  CB       -15.9940  -59.8280   27.9770 C.3   641  ASN641      0.1181
    102  CG       -15.9210  -61.2860   27.6890 C.2   641  ASN641      0.2629
    103  OD1      -15.2050  -61.7530   26.7860 O.2   641  ASN641     -0.2716
    104  ND2      -16.6750  -62.0430   28.4690 N.am  641  ASN641     -0.0877
    105  N        -13.8670  -64.1320   26.4140 N.3   666  GLU666     -0.1245
    106  CA       -12.9770  -63.5700   27.4320 C.3   666  GLU666      0.1567
    107  C        -11.8400  -62.8440   26.6940 C.2   666  GLU666      0.2260
    108  O        -10.6720  -63.2110   26.7790 O.2   666  GLU666     -0.2867
    109  CB       -12.4570  -64.6420   28.4030 C.3   666  GLU666      0.0388
    110  CG       -13.4880  -65.1470   29.4110 C.3   666  GLU666      0.1160
    111  CD       -13.9720  -64.1120   30.4390 C.2   666  GLU666      0.3649
    112  OE1      -13.2240  -63.1910   30.8230 O.co2 666  GLU666     -0.2457
    113  OE2      -15.1350  -64.2420   30.8830 O.co2 666  GLU666     -0.2457
    114  N        -10.7670  -59.8650   27.0890 N.3   668  GLY668     -0.1225
    115  CA        -9.9860  -58.9070   27.8710 C.3   668  GLY668      0.1811
    116  C         -8.5270  -59.3190   27.9120 C.2   668  GLY668      0.2280
    117  O         -7.6240  -58.4780   27.9700 O.2   668  GLY668     -0.2866
    118  N         -5.4740  -59.4440   31.4150 N.3   697  GLN697     -0.1245
    119  CA        -6.5910  -58.6260   30.9460 C.3   697  GLN697      0.1566
    120  C         -6.1230  -57.3660   30.2540 C.2   697  GLN697      0.2260
    121  O         -6.6200  -56.2570   30.4750 O.2   697  GLN697     -0.2867
    122  CB        -7.5510  -58.3350   32.0710 C.3   697  GLN697      0.0367
    123  CG        -8.1710  -59.5620   32.6580 C.3   697  GLN697      0.0905
    124  CD        -9.1030  -60.2640   31.7120 C.2   697  GLN697      0.2608
    125  OE1       -8.7690  -61.3060   31.1510 O.2   697  GLN697     -0.2717
    126  NE2      -10.2880  -59.7040   31.5390 N.am  697  GLN697     -0.0878
    127  N         -8.6120  -55.5670   27.7470 N.3   700  GLU700     -0.1245
    128  CA        -9.6780  -54.8990   28.4900 C.3   700  GLU700      0.1567
    129  C         -9.1470  -53.6940   29.2090 C.2   700  GLU700      0.2260
    130  O         -9.8560  -52.7140   29.4090 O.2   700  GLU700     -0.2867
    131  CB       -10.3240  -55.8890   29.4550 C.3   700  GLU700      0.0388
    132  CG       -10.6580  -55.4100   30.8290 C.3   700  GLU700      0.1160
    133  CD       -11.2570  -56.5450   31.6690 C.2   700  GLU700      0.3649
    134  OE1      -12.4290  -56.8900   31.4430 O.co2 700  GLU700     -0.2457
    135  OE2      -10.5430  -57.1020   32.5430 O.co2 700  GLU700     -0.2457
@<TRIPOS>BOND
     1   100    99    2
     2    99    98    1
     3    72    73    1
     4    96    95    1
     5    68    67    2
     6   105   106    1
     7   107   108    2
     8   107   106    1
     9    98    97    1
    10    98   101    1
    11   103   102    2
    12    75    74    2
    13    69    70    1
    14    69    71    1
    15    69    66    1
    16   114   115    1
    17    67    66    1
    18    97    93   am
    19    74    73    1
    20    73    76    1
    21   106   109    1
    22    95    92    1
    23    66    65    1
    24   102   101    1
    25   102   104   am
    26   127   128    1
    27   115   116    1
    28   116   117    2
    29    93    94    2
    30    93    92    1
    31   109   110    1
    32   128   129    1
    33   128   131    1
    34    92    91    1
    35    76    77    1
    36    76    78    1
    37    77    79    1
    38    65    59   am
    39   129   130    2
    40    60    59    2
    41   110   111    1
    42   131   132    1
    43    55    54    2
    44    91    89   am
    45    59    58    1
    46   120   121    2
    47   120   119    1
    48   111   112   ar
    49   111   113   ar
    50    90    89    2
    51    53    54    1
    52    53    50    1
    53    54    56   am
    54    89    88    1
    55    52    51    2
    56   132   133    1
    57   119   118    1
    58   119   122    1
    59   125   124    2
    60    51    50    1
    61    51    57   am
    62    58    57    1
    63    58    61    1
    64    63    62   ar
    65   134   133   ar
    66   126   124   am
    67    49    50    1
    68   133   135   ar
    69   124   123    1
    70    62    61    1
    71    62    64   ar
    72   122   123    1
    73    88    87    1
    74    30    27    1
    75    30    31    1
    76    87    82   am
    77    27    28    1
    78    27    26    1
    79    80    81    1
    80    82    83    2
    81    82    81    1
    82    28    29    2
    83    26    32    1
    84    26    17   am
    85    18    17    2
    86    31    32    1
    87    17    16    1
    88    81    84    1
    89    13    10    1
    90    13    14    1
    91    39    37    1
    92    10    11    1
    93    10     9    1
    94    11    15   am
    95    11    12    2
    96    15    16    1
    97    16    19    1
    98    38    37    1
    99    37    34    1
   100    48    47    1
   101    84    85    1
   102    84    86    1
   103    46    47    1
   104    46    45    1
   105    45    44    1
   106    19    20    1
   107    40    41    1
   108    40    35   am
   109    34    35    1
   110    34    33    1
   111     6     5    1
   112     6     7    1
   113    44    41    1
   114     4     3    2
   115    41    42    1
   116    20    21   ar
   117    20    22   ar
   118    35    36    2
   119    21    23   ar
   120     5     3   am
   121     3     2    1
   122    22    24   ar
   123     7     8    2
   124    23    25   ar
   125     2     1    1
   126    42    43    2
   127    24    25   ar
