@<TRIPOS>MOLECULE
tmp/2nztB00.pdb
 135 127 0 0 0
SMALL
GASTEIGER

@<TRIPOS>ATOM
      1  N        -48.2130  -38.6840   33.6970 N.3    70  GLY70      -0.1210
      2  CA       -47.0740  -38.9010   34.6020 C.3    70  GLY70       0.1956
      3  C        -47.4500  -38.8210   36.0700 C.2    70  GLY70       0.2612
      4  O        -46.5880  -39.0100   36.9510 O.2    70  GLY70      -0.2717
      5  N        -48.7210  -38.4850   36.3260 N.am   71  GLY71      -0.1956
      6  CA       -49.2880  -38.5020   37.6580 C.3    71  GLY71       0.1869
      7  C        -50.0690  -39.7900   37.8390 C.2    71  GLY71       0.2309
      8  O        -49.9550  -40.6930   37.0370 O.2    71  GLY71      -0.2863
      9  N        -45.2000  -35.0240   32.7330 N.3   132  SER132     -0.1202
     10  CA       -44.6730  -34.7570   34.0590 C.3   132  SER132      0.2020
     11  C        -43.2770  -35.2930   34.3040 C.2   132  SER132      0.2619
     12  O        -43.0730  -36.0540   35.2390 O.2   132  SER132     -0.2717
     13  CB       -45.6040  -35.3750   35.0980 C.3   132  SER132      0.2103
     14  OG       -46.8830  -34.8160   34.9960 O.3   132  SER132     -0.2182
     15  N        -42.3180  -34.8830   33.4790 N.am  133  PHE133     -0.1962
     16  CA       -40.9390  -35.3740   33.5640 C.3   133  PHE133      0.1756
     17  C        -39.9770  -34.3100   33.1170 C.2   133  PHE133      0.2461
     18  O        -40.4000  -33.3480   32.4710 O.2   133  PHE133     -0.2730
     19  CB       -40.7500  -36.6210   32.7080 C.3   133  PHE133      0.0574
     20  CG       -41.7870  -37.6540   32.9480 C.ar  133  PHE133     -0.0200
     21  CD1      -41.6500  -38.5560   33.9600 C.ar  133  PHE133     -0.0042
     22  CD2      -42.9210  -37.7060   32.1560 C.ar  133  PHE133     -0.0042
     23  CE1      -42.6260  -39.5090   34.1820 C.ar  133  PHE133     -0.0003
     24  CE2      -43.9040  -38.6450   32.3730 C.ar  133  PHE133     -0.0003
     25  CZ       -43.7670  -39.5380   33.3810 C.ar  133  PHE133     -0.0000
     26  N        -38.6720  -34.4550   33.4860 N.am  134  PRO134     -0.2727
     27  CA       -37.6800  -33.5090   33.0530 C.3   134  PRO134      0.1402
     28  C        -37.4930  -33.5550   31.5570 C.2   134  PRO134      0.2269
     29  O        -37.1660  -34.6010   31.0110 O.2   134  PRO134     -0.2865
     30  CB       -36.4110  -33.9900   33.7650 C.3   134  PRO134      0.0296
     31  CG       -36.6350  -35.3620   34.0710 C.3   134  PRO134      0.0237
     32  CD       -38.0630  -35.4750   34.3620 C.3   134  PRO134      0.0939
     33  N        -38.8350  -40.7470   35.3690 N.3   149  THR149     -0.1203
     34  CA       -38.7410  -40.7580   36.8050 C.3   149  THR149      0.1994
     35  C        -39.9820  -41.4440   37.2820 C.2   149  THR149      0.2617
     36  O        -40.8040  -41.8540   36.4690 O.2   149  THR149     -0.2717
     37  CB       -38.6390  -39.3270   37.4040 C.3   149  THR149      0.1784
     38  OG1      -39.6810  -38.5050   36.9030 O.3   149  THR149     -0.2211
     39  CG2      -37.3110  -38.6900   37.0640 C.3   149  THR149      0.0376
     40  N        -40.1200  -41.5830   38.6060 N.am  150  LYS150     -0.1979
     41  CA       -41.2910  -42.2270   39.2090 C.3   150  LYS150      0.1596
     42  C        -41.4320  -43.6820   38.6740 C.2   150  LYS150      0.2287
     43  O        -40.4700  -44.4430   38.7580 O.2   150  LYS150     -0.2864
     44  CB       -42.5520  -41.3770   38.9990 C.3   150  LYS150      0.0298
     45  CG       -42.4040  -39.9840   39.5360 C.3   150  LYS150      0.0038
     46  CD       -43.5340  -39.0750   39.0800 C.3   150  LYS150      0.0206
     47  CE       -43.3430  -38.5380   37.6990 C.3   150  LYS150      0.1093
     48  NZ       -44.2150  -37.3700   37.5210 N.3   150  LYS150     -0.1314
     49  N        -44.3840  -29.1270   31.9250 N.3   185  ASN185     -0.1225
     50  CA       -44.2970  -29.9880   33.0740 C.3   185  ASN185      0.1785
     51  C        -45.6150  -29.7430   33.7800 C.2   185  ASN185      0.2597
     52  O        -46.3400  -28.7920   33.4420 O.2   185  ASN185     -0.2718
     53  CB       -43.0800  -29.6080   33.9390 C.3   185  ASN185      0.1169
     54  CG       -42.8470  -30.5430   35.1230 C.2   185  ASN185      0.2627
     55  OD1      -42.9780  -30.1350   36.2740 O.2   185  ASN185     -0.2716
     56  ND2      -42.4580  -31.7730   34.8480 N.am  185  ASN185     -0.0877
     57  N        -45.9520  -30.6000   34.7370 N.am  186  ASP186     -0.1960
     58  CA       -47.2030  -30.4630   35.4670 C.3   186  ASP186      0.1840
     59  C        -47.1180  -29.3680   36.5120 C.2   186  ASP186      0.2622
     60  O        -48.1320  -28.8220   36.8790 O.2   186  ASP186     -0.2715
     61  CB       -47.6120  -31.7850   36.0870 C.3   186  ASP186      0.1450
     62  CG       -46.5120  -32.4040   36.8800 C.2   186  ASP186      0.3671
     63  OD1      -45.3530  -31.9680   36.6830 O.co2 186  ASP186     -0.2456
     64  OD2      -46.7850  -33.3440   37.6820 O.co2 186  ASP186     -0.2456
     65  N        -45.9220  -29.0340   36.9930 N.am  187  THR187     -0.1951
     66  CA       -45.7540  -27.8610   37.8500 C.3   187  THR187      0.1897
     67  C        -46.1320  -26.5840   37.0700 C.2   187  THR187      0.2313
     68  O        -46.8240  -25.6850   37.5720 O.2   187  THR187     -0.2863
     69  CB       -44.3290  -27.7290   38.3480 C.3   187  THR187      0.1794
     70  OG1      -43.4250  -27.7900   37.2450 O.3   187  THR187     -0.2208
     71  CG2      -44.0040  -28.8300   39.2670 C.3   187  THR187      0.0378
     72  N        -45.9870  -29.5200   43.2440 N.3   206  ILE206     -0.1245
     73  CA       -46.6110  -30.8150   43.0980 C.3   206  ILE206      0.1561
     74  C        -46.0760  -31.6640   44.2110 C.2   206  ILE206      0.2260
     75  O        -44.8380  -31.7950   44.3640 O.2   206  ILE206     -0.2867
     76  CB       -46.2490  -31.4530   41.7550 C.3   206  ILE206      0.0252
     77  CG1      -46.8440  -30.6430   40.6320 C.3   206  ILE206      0.0019
     78  CG2      -46.7980  -32.8580   41.6630 C.3   206  ILE206      0.0019
     79  CD1      -48.3500  -30.7150   40.6110 C.3   206  ILE206      0.0001
     80  N        -47.4730  -38.3900   43.2470 N.3   209  THR209     -0.1203
     81  CA       -46.5750  -39.5220   42.9420 C.3   209  THR209      0.1994
     82  C        -45.0940  -39.0880   43.0850 C.2   209  THR209      0.2618
     83  O        -44.2910  -39.7710   43.7150 O.2   209  THR209     -0.2717
     84  CB       -46.8400  -40.1330   41.5560 C.3   209  THR209      0.1784
     85  OG1      -48.2450  -40.3950   41.4060 O.3   209  THR209     -0.2211
     86  CG2      -46.0760  -41.4480   41.4050 C.3   209  THR209      0.0376
     87  N        -44.7490  -37.9370   42.5260 N.am  210  GLY210     -0.1942
     88  CA       -43.4010  -37.3900   42.6860 C.3   210  GLY210      0.2014
     89  C        -43.5370  -36.0190   43.2880 C.2   210  GLY210      0.2640
     90  O        -44.6550  -35.5810   43.5570 O.2   210  GLY210     -0.2714
     91  N        -42.4240  -35.3230   43.4930 N.am  211  SER211     -0.1935
     92  CA       -42.4880  -33.9400   43.9280 C.3   211  SER211      0.2055
     93  C        -41.5600  -33.0750   43.1500 C.2   211  SER211      0.2643
     94  O        -40.4210  -33.4370   42.8850 O.2   211  SER211     -0.2714
     95  CB       -42.1270  -33.7930   45.3890 C.3   211  SER211      0.2130
     96  OG       -42.3450  -32.4350   45.7870 O.3   211  SER211     -0.2179
     97  N        -42.0370  -31.9000   42.8270 N.am  212  ASN212     -0.1971
     98  CA       -41.2900  -30.9930   42.0320 C.3   212  ASN212      0.1688
     99  C        -41.9940  -29.6630   42.1470 C.2   212  ASN212      0.2292
    100  O        -43.1750  -29.6110   42.4940 O.2   212  ASN212     -0.2864
    101  CB       -41.2680  -31.5120   40.5970 C.3   212  ASN212      0.1181
    102  CG       -40.4180  -30.6610   39.6440 C.2   212  ASN212      0.2629
    103  OD1      -39.4780  -29.9720   40.0460 O.2   212  ASN212     -0.2716
    104  ND2      -40.7440  -30.7440   38.3540 N.am  212  ASN212     -0.0877
    105  N        -36.9930  -29.1460   38.7470 N.3   237  GLU237     -0.1245
    106  CA       -36.7500  -30.6120   38.9170 C.3   237  GLU237      0.1567
    107  C        -36.0250  -30.8530   40.1990 C.2   237  GLU237      0.2260
    108  O        -34.9310  -31.3990   40.2090 O.2   237  GLU237     -0.2867
    109  CB       -35.9730  -31.2200   37.7490 C.3   237  GLU237      0.0388
    110  CG       -36.7870  -31.3880   36.4790 C.3   237  GLU237      0.1160
    111  CD       -37.9270  -32.3770   36.6280 C.2   237  GLU237      0.3649
    112  OE1      -37.7920  -33.3520   37.3920 O.co2 237  GLU237     -0.2457
    113  OE2      -38.9630  -32.1580   35.9690 O.co2 237  GLU237     -0.2457
    114  N        -36.7820  -32.8640   42.6170 N.3   239  GLY239     -0.1225
    115  CA       -36.7490  -34.2640   43.0650 C.3   239  GLY239      0.1811
    116  C        -35.3490  -34.8460   43.0840 C.2   239  GLY239      0.2280
    117  O        -35.0460  -35.7360   43.9010 O.2   239  GLY239     -0.2866
    118  N        -33.4440  -38.9520   41.7160 N.3   268  GLN268     -0.1245
    119  CA       -34.6100  -38.4410   42.4360 C.3   268  GLN268      0.1566
    120  C        -34.5300  -38.6990   43.9570 C.2   268  GLN268      0.2260
    121  O        -35.5190  -38.9840   44.6070 O.2   268  GLN268     -0.2867
    122  CB       -35.8810  -39.0290   41.8480 C.3   268  GLN268      0.0367
    123  CG       -36.0070  -38.8620   40.3440 C.3   268  GLN268      0.0905
    124  CD       -36.1610  -37.4410   39.9320 C.2   268  GLN268      0.2608
    125  OE1      -35.2250  -36.8300   39.4280 O.2   268  GLN268     -0.2717
    126  NE2      -37.3470  -36.8890   40.1470 N.am  268  GLN268     -0.0878
    127  N        -36.9100  -36.4000   46.1070 N.3   271  GLU271     -0.1245
    128  CA       -38.2450  -36.8870   45.8440 C.3   271  GLU271      0.1567
    129  C        -38.5590  -38.1470   46.6670 C.2   271  GLU271      0.2260
    130  O        -39.6430  -38.2790   47.2070 O.2   271  GLU271     -0.2867
    131  CB       -38.3250  -37.2100   44.3480 C.3   271  GLU271      0.0388
    132  CG       -39.6460  -37.6720   43.8180 C.3   271  GLU271      0.1160
    133  CD       -39.7410  -37.5670   42.2940 C.2   271  GLU271      0.3649
    134  OE1      -39.1620  -38.3840   41.5720 O.co2 271  GLU271     -0.2457
    135  OE2      -40.4230  -36.6580   41.8200 O.co2 271  GLU271     -0.2457
@<TRIPOS>BOND
     1    29    28    2
     2    28    27    1
     3    49    50    1
     4    22    24   ar
     5    22    20   ar
     6    24    25   ar
     7    18    17    2
     8    19    20    1
     9    19    16    1
    10     9    10    1
    11    20    21   ar
    12    27    26    1
    13    27    30    1
    14    50    51    1
    15    50    53    1
    16    17    26   am
    17    17    16    1
    18    25    23   ar
    19    52    51    2
    20    15    16    1
    21    15    11   am
    22    26    32    1
    23     1     2    1
    24    30    31    1
    25    51    57   am
    26    53    54    1
    27    21    23   ar
    28    10    11    1
    29    10    13    1
    30    31    32    1
    31    11    12    2
    32     2     3    1
    33    57    58    1
    34    56    54   am
    35    14    13    1
    36    54    55    2
    37    33    34    1
    38    58    61    1
    39    58    59    1
    40   113   111   ar
    41     3     5   am
    42     3     4    2
    43    61    62    1
    44     5     6    1
    45    36    35    2
    46   110   111    1
    47   110   109    1
    48    59    60    2
    49    59    65   am
    50   111   112   ar
    51    63    62   ar
    52    34    35    1
    53    34    37    1
    54    62    64   ar
    55    38    37    1
    56    65    66    1
    57     8     7    2
    58    39    37    1
    59    67    68    2
    60    67    66    1
    61    70    69    1
    62    35    40   am
    63    48    47    1
    64     6     7    1
    65    47    46    1
    66   109   106    1
    67    66    69    1
    68    69    71    1
    69   104   102   am
    70    40    41    1
    71    42    43    2
    72    42    41    1
    73   105   106    1
    74   106   107    1
    75    44    41    1
    76    44    45    1
    77    46    45    1
    78   125   124    2
    79   102   103    2
    80   102   101    1
    81   124   126   am
    82   124   123    1
    83   107   108    2
    84   123   122    1
    85   101    98    1
    86    79    77    1
    87    77    76    1
    88    86    84    1
    89    85    84    1
    90    84    81    1
    91   134   133   ar
    92    78    76    1
    93   118   119    1
    94    76    73    1
    95   135   133   ar
    96   122   119    1
    97    98    99    1
    98    98    97    1
    99    99   100    2
   100   133   132    1
   101   119   120    1
   102    87    88    1
   103    87    82   am
   104   114   115    1
   105    88    89    1
   106    97    93   am
   107    94    93    2
   108    81    82    1
   109    81    80    1
   110   115   116    1
   111   116   117    2
   112    82    83    2
   113    73    72    1
   114    73    74    1
   115    93    92    1
   116    89    91   am
   117    89    90    2
   118    91    92    1
   119   132   131    1
   120    92    95    1
   121   120   121    2
   122    74    75    2
   123   131   128    1
   124    95    96    1
   125   128   127    1
   126   128   129    1
   127   129   130    2
