@<TRIPOS>MOLECULE
tmp/2nztA00.pdb
 135 127 0 0 0
SMALL
GASTEIGER

@<TRIPOS>ATOM
      1  N          5.0310    0.6040   12.0550 N.3    70  GLY70      -0.1210
      2  CA         3.8990    1.4800   12.2920 C.3    70  GLY70       0.1956
      3  C          4.2610    2.8250   12.8700 C.2    70  GLY70       0.2612
      4  O          3.4550    3.7070   12.8440 O.2    70  GLY70      -0.2717
      5  N          5.4580    2.9390   13.4340 N.am   71  GLY71      -0.1956
      6  CA         5.9600    4.1780   13.9520 C.3    71  GLY71       0.1869
      7  C          6.7600    4.9110   12.8860 C.2    71  GLY71       0.2309
      8  O          6.6430    4.6050   11.6660 O.2    71  GLY71      -0.2863
      9  N          1.9420   -1.9690   14.8310 N.3   132  SER132     -0.1202
     10  CA         1.3460   -0.9230   15.6330 C.3   132  SER132      0.2020
     11  C          0.0090   -0.4640   15.1280 C.2   132  SER132      0.2619
     12  O         -0.2080    0.7200   14.9450 O.2   132  SER132     -0.2717
     13  CB         2.3060    0.2330   15.6960 C.3   132  SER132      0.2103
     14  OG         3.5870   -0.2810   15.9790 O.3   132  SER132     -0.2182
     15  N         -0.9100   -1.4170   14.9490 N.am  133  PHE133     -0.1962
     16  CA        -2.3060   -1.1530   14.4670 C.3   133  PHE133      0.1756
     17  C         -3.2690   -2.0690   15.1690 C.2   133  PHE133      0.2461
     18  O         -2.8560   -3.0530   15.7450 O.2   133  PHE133     -0.2730
     19  CB        -2.3970   -1.3230   12.9380 C.3   133  PHE133      0.0574
     20  CG        -1.3640   -0.5560   12.2140 C.ar  133  PHE133     -0.0200
     21  CD1       -1.5720    0.7580   11.8920 C.ar  133  PHE133     -0.0042
     22  CD2       -0.1280   -1.1110   11.9710 C.ar  133  PHE133     -0.0042
     23  CE1       -0.5810    1.4850   11.2700 C.ar  133  PHE133     -0.0003
     24  CE2        0.8710   -0.3910   11.3480 C.ar  133  PHE133     -0.0003
     25  CZ         0.6450    0.8940   10.9970 C.ar  133  PHE133     -0.0000
     26  N         -4.5570   -1.7140   15.1900 N.am  134  PRO134     -0.2727
     27  CA        -5.5140   -2.5520   15.8900 C.3   134  PRO134      0.1402
     28  C         -5.6790   -3.8930   15.2290 C.2   134  PRO134      0.2269
     29  O         -5.9790   -3.9320   14.0450 O.2   134  PRO134     -0.2865
     30  CB        -6.8140   -1.7670   15.7780 C.3   134  PRO134      0.0296
     31  CG        -6.6190   -0.7710   14.6690 C.3   134  PRO134      0.0237
     32  CD        -5.1800   -0.4920   14.6380 C.3   134  PRO134      0.0939
     33  N         -4.3890    2.9520   10.7010 N.3   149  THR149     -0.1203
     34  CA        -4.4960    4.2320   11.3290 C.3   149  THR149      0.1994
     35  C         -3.2680    4.9690   10.8510 C.2   149  THR149      0.2617
     36  O         -2.4910    4.4090   10.0390 O.2   149  THR149     -0.2717
     37  CB        -4.5300    4.1100   12.8790 C.3   149  THR149      0.1784
     38  OG1       -3.4000    3.3770   13.3350 O.3   149  THR149     -0.2211
     39  CG2       -5.7670    3.3880   13.3350 C.3   149  THR149      0.0376
     40  N         -3.1050    6.2210   11.3100 N.am  150  LYS150     -0.1979
     41  CA        -1.9320    7.0420   10.9840 C.3   150  LYS150      0.1596
     42  C         -1.7820    7.1840    9.4520 C.2   150  LYS150      0.2287
     43  O         -2.7470    7.5540    8.7860 O.2   150  LYS150     -0.2864
     44  CB        -0.6950    6.4890   11.6920 C.3   150  LYS150      0.0298
     45  CG        -0.8910    6.4930   13.1910 C.3   150  LYS150      0.0038
     46  CD         0.1820    5.7760   13.9350 C.3   150  LYS150      0.0206
     47  CE         0.3060    4.3530   13.5090 C.3   150  LYS150      0.1093
     48  NZ         0.9490    3.5160   14.5510 N.3   150  LYS150     -0.1314
     49  N          1.1110   -5.4830   19.5510 N.3   185  ASN185     -0.1225
     50  CA         1.0060   -4.0470   19.2880 C.3   185  ASN185      0.1785
     51  C          2.2270   -3.3360   19.8880 C.2   185  ASN185      0.2597
     52  O          2.9450   -3.8840   20.7440 O.2   185  ASN185     -0.2718
     53  CB        -0.2690   -3.5100   19.9080 C.3   185  ASN185      0.1169
     54  CG        -0.5920   -2.1530   19.4670 C.2   185  ASN185      0.2627
     55  OD1       -0.6570   -1.2240   20.2690 O.2   185  ASN185     -0.2716
     56  ND2       -0.8160   -2.0040   18.1980 N.am  185  ASN185     -0.0877
     57  N          2.4750   -2.1050   19.4690 N.am  186  ASP186     -0.1960
     58  CA         3.6610   -1.4310   19.9630 C.3   186  ASP186      0.1840
     59  C          3.5370   -1.0820   21.4360 C.2   186  ASP186      0.2622
     60  O          4.5450   -1.0920   22.1450 O.2   186  ASP186     -0.2715
     61  CB         4.0930   -0.2430   19.0600 C.3   186  ASP186      0.1450
     62  CG         3.0720    0.8160   18.9380 C.2   186  ASP186      0.3671
     63  OD1        1.9050    0.5430   19.3030 O.co2 186  ASP186     -0.2456
     64  OD2        3.4430    1.9280   18.4710 O.co2 186  ASP186     -0.2456
     65  N          2.3070   -0.8230   21.9020 N.am  187  THR187     -0.1951
     66  CA         2.0550   -0.5300   23.3020 C.3   187  THR187      0.1897
     67  C          2.4290   -1.7350   24.1710 C.2   187  THR187      0.2313
     68  O          3.0780   -1.6060   25.2140 O.2   187  THR187     -0.2863
     69  CB         0.5950   -0.1460   23.5170 C.3   187  THR187      0.1794
     70  OG1       -0.2640   -1.2300   23.2130 O.3   187  THR187     -0.2208
     71  CG2        0.2260    0.9440   22.5990 C.3   187  THR187      0.0378
     72  N          2.2550    4.8190   24.3640 N.3   206  ILE206     -0.1245
     73  CA         2.9420    5.3440   23.2030 C.3   206  ILE206      0.1561
     74  C          2.3850    6.7420   22.9360 C.2   206  ILE206      0.2260
     75  O          1.1710    6.9160   22.8440 O.2   206  ILE206     -0.2867
     76  CB         2.7280    4.4570   21.9850 C.3   206  ILE206      0.0252
     77  CG1        3.3250    3.0710   22.2210 C.3   206  ILE206      0.0019
     78  CG2        3.3330    5.0680   20.7430 C.3   206  ILE206      0.0019
     79  CD1        4.8720    3.0060   22.1130 C.3   206  ILE206      0.0001
     80  N          3.8910    8.9000   16.5650 N.3   209  THR209     -0.1203
     81  CA         3.1490    9.2090   15.3480 C.3   209  THR209      0.1994
     82  C          1.6880    9.1340   15.6620 C.2   209  THR209      0.2618
     83  O          0.9230   10.0030   15.3010 O.2   209  THR209     -0.2717
     84  CB         3.5050    8.2380   14.2240 C.3   209  THR209      0.1784
     85  OG1        4.9020    8.3100   13.9510 O.3   209  THR209     -0.2211
     86  CG2        2.8110    8.5600   12.9720 C.3   209  THR209      0.0376
     87  N          1.2960    8.1000   16.3850 N.am  210  GLY210     -0.1942
     88  CA        -0.0710    8.0200   16.9810 C.3   210  GLY210      0.2014
     89  C          0.0100    7.9300   18.5080 C.2   210  GLY210      0.2640
     90  O          1.0900    8.0330   19.0860 O.2   210  GLY210     -0.2714
     91  N         -1.1260    7.7200   19.1540 N.am  211  SER211     -0.1935
     92  CA        -1.1480    7.4590   20.5730 C.3   211  SER211      0.2055
     93  C         -2.1370    6.3980   20.9820 C.2   211  SER211      0.2643
     94  O         -3.2750    6.3640   20.5170 O.2   211  SER211     -0.2714
     95  CB        -1.4970    8.7120   21.3550 C.3   211  SER211      0.2130
     96  OG        -1.4740    8.4050   22.7510 O.3   211  SER211     -0.2179
     97  N         -1.7140    5.5960   21.9470 N.am  212  ASN212     -0.1971
     98  CA        -2.4510    4.4220   22.3830 C.3   212  ASN212      0.1688
     99  C         -1.8130    3.9480   23.6590 C.2   212  ASN212      0.2292
    100  O         -0.7660    4.4350   24.0680 O.2   212  ASN212     -0.2864
    101  CB        -2.3590    3.3720   21.3100 C.3   212  ASN212      0.1181
    102  CG        -3.2300    2.1750   21.5500 C.2   212  ASN212      0.2629
    103  OD1       -4.1810    2.1790   22.3320 O.2   212  ASN212     -0.2716
    104  ND2       -2.9000    1.1150   20.8430 N.am  212  ASN212     -0.0877
    105  N         -6.6430    0.6360   22.2700 N.3   237  GLU237     -0.1245
    106  CA        -6.8430    1.4180   21.0410 C.3   237  GLU237      0.1567
    107  C         -7.6300    2.6510   21.3590 C.2   237  GLU237      0.2260
    108  O         -8.6960    2.8960   20.8040 O.2   237  GLU237     -0.2867
    109  CB        -7.4890    0.5970   19.9900 C.3   237  GLU237      0.0388
    110  CG        -6.5610   -0.4650   19.5080 C.3   237  GLU237      0.1160
    111  CD        -5.5120    0.0480   18.6000 C.2   237  GLU237      0.3649
    112  OE1       -5.7280    1.1360   18.0360 O.co2 237  GLU237     -0.2457
    113  OE2       -4.4870   -0.6390   18.4200 O.co2 237  GLU237     -0.2457
    114  N         -6.9840    5.7280   20.8120 N.3   239  GLY239     -0.1225
    115  CA        -6.9620    6.7520   19.7890 C.3   239  GLY239      0.1811
    116  C         -8.3010    6.9790   19.1360 C.2   239  GLY239      0.2280
    117  O         -8.5110    8.0570   18.5490 O.2   239  GLY239     -0.2866
    118  N        -10.1200    7.7830   14.7360 N.3   268  GLN268     -0.1245
    119  CA        -8.9370    8.0840   15.5550 C.3   268  GLN268      0.1566
    120  C         -8.9350    9.5260   16.0020 C.2   268  GLN268      0.2260
    121  O         -7.9080   10.1670   16.0060 O.2   268  GLN268     -0.2867
    122  CB        -7.6270    7.7290   14.8370 C.3   268  GLN268      0.0367
    123  CG        -7.5110    6.2320   14.4600 C.3   268  GLN268      0.0905
    124  CD        -7.2870    5.2850   15.6670 C.2   268  GLN268      0.2608
    125  OE1       -8.1710    4.4940   16.0330 O.2   268  GLN268     -0.2717
    126  NE2       -6.0940    5.3720   16.2810 N.am  268  GLN268     -0.0878
    127  N         -6.7050   10.5460   19.2750 N.3   271  GLU271     -0.1245
    128  CA        -5.3620   10.5450   18.7020 C.3   271  GLU271      0.1567
    129  C         -5.0820   11.8020   17.9300 C.2   271  GLU271      0.2260
    130  O         -4.0170   12.3850   18.0360 O.2   271  GLU271     -0.2867
    131  CB        -5.2560    9.3610   17.7430 C.3   271  GLU271      0.0388
    132  CG        -3.9500    9.1790   17.0630 C.3   271  GLU271      0.1160
    133  CD        -3.7910    7.7810   16.4680 C.2   271  GLU271      0.3649
    134  OE1       -4.3890    7.4900   15.4170 O.co2 271  GLU271     -0.2457
    135  OE2       -3.0490    6.9740   17.0420 O.co2 271  GLU271     -0.2457
@<TRIPOS>BOND
     1    43    42    2
     2    42    41    1
     3    36    35    2
     4    33    34    1
     5    35    40   am
     6    35    34    1
     7    41    40    1
     8    41    44    1
     9    25    23   ar
    10    25    24   ar
    11    23    21   ar
    12    34    37    1
    13    24    22   ar
    14     8     7    2
    15    44    45    1
    16    21    20   ar
    17    22    20   ar
    18     1     2    1
    19    20    19    1
    20     2     3    1
    21     4     3    2
    22     3     5   am
    23    37    39    1
    24    37    38    1
    25     7     6    1
    26    19    16    1
    27    86    84    1
    28    45    46    1
    29     5     6    1
    30    47    46    1
    31    47    48    1
    32    85    84    1
    33    29    28    2
    34    84    81    1
    35   123   122    1
    36   123   124    1
    37    16    15    1
    38    16    17    1
    39    32    31    1
    40    32    26    1
    41    31    30    1
    42   118   119    1
    43     9    10    1
    44   122   119    1
    45    12    11    2
    46    15    11   am
    47    11    10    1
    48    17    26   am
    49    17    18    2
    50    26    27    1
    51    28    27    1
    52    83    82    2
    53    81    82    1
    54    81    80    1
    55   134   133   ar
    56   119   120    1
    57    10    13    1
    58    82    87   am
    59   124   125    2
    60   124   126   am
    61    13    14    1
    62    30    27    1
    63   120   121    2
    64    87    88    1
    65   133   135   ar
    66   133   132    1
    67    88    89    1
    68   132   131    1
    69   131   128    1
    70   129   130    2
    71   129   128    1
    72   112   111   ar
    73    56    54   am
    74   113   111   ar
    75    64    62   ar
    76    89    90    2
    77    89    91   am
    78   117   116    2
    79   111   110    1
    80   128   127    1
    81    62    61    1
    82    62    63   ar
    83    61    58    1
    84   116   115    1
    85    91    92    1
    86    50    49    1
    87    50    51    1
    88    50    53    1
    89    54    53    1
    90    54    55    2
    91    57    51   am
    92    57    58    1
    93   110   109    1
    94   115   114    1
    95    51    52    2
    96    58    59    1
    97   109   106    1
    98    94    93    2
    99    92    93    1
   100    92    95    1
   101    78    76    1
   102   108   107    2
   103   104   102   am
   104    93    97   am
   105   106   107    1
   106   106   105    1
   107   101   102    1
   108   101    98    1
   109    95    96    1
   110    59    65   am
   111    59    60    2
   112   102   103    2
   113    65    66    1
   114    97    98    1
   115    76    77    1
   116    76    73    1
   117    79    77    1
   118    98    99    1
   119    71    69    1
   120    75    74    2
   121    74    73    1
   122    73    72    1
   123    70    69    1
   124    66    69    1
   125    66    67    1
   126    99   100    2
   127    67    68    2
