@<TRIPOS>MOLECULE
tmp/2nztB01.pdb
 124 112 0 0 0
SMALL
GASTEIGER

@<TRIPOS>ATOM
      1  N        -52.6870  -35.3380   29.8770 N.3    68  ASP68      -0.1239
      2  CA       -52.1310  -35.1010   31.2080 C.3    68  ASP68       0.1674
      3  C        -51.4990  -36.4150   31.6070 C.2    68  ASP68       0.2266
      4  O        -52.2090  -37.3970   31.7230 O.2    68  ASP68      -0.2867
      5  CB       -53.2440  -34.6920   32.1530 C.3    68  ASP68       0.1410
      6  CG       -52.7510  -34.3020   33.5020 C.2    68  ASP68       0.3668
      7  OD1      -51.5280  -34.4480   33.7690 O.co2  68  ASP68      -0.2456
      8  OD2      -53.5980  -33.8380   34.3100 O.co2  68  ASP68      -0.2456
      9  N        -48.7210  -38.4850   36.3260 N.3    71  GLY71      -0.1210
     10  CA       -49.2880  -38.5020   37.6580 C.3    71  GLY71       0.1956
     11  C        -50.0690  -39.7900   37.8390 C.2    71  GLY71       0.2613
     12  O        -49.9550  -40.6930   37.0370 O.2    71  GLY71      -0.2717
     13  N        -50.8730  -39.8680   38.8960 N.am   72  THR72      -0.1938
     14  CA       -51.6010  -41.1050   39.2290 C.3    72  THR72       0.2028
     15  C        -52.6350  -41.4490   38.1720 C.2    72  THR72       0.2642
     16  O        -52.9030  -42.6210   37.9380 O.2    72  THR72      -0.2714
     17  CB       -52.3210  -41.0010   40.5810 C.3    72  THR72       0.1808
     18  OG1      -53.1600  -39.8540   40.5570 O.3    72  THR72      -0.2208
     19  CG2      -51.3130  -40.8670   41.7520 C.3    72  THR72       0.0379
     20  N        -53.1920  -40.4260   37.5280 N.am   73  ASN73      -0.1971
     21  CA       -54.2440  -40.6020   36.5170 C.3    73  ASN73       0.1688
     22  C        -53.9250  -39.9300   35.1700 C.2    73  ASN73       0.2292
     23  O        -53.8600  -38.7150   35.0820 O.2    73  ASN73      -0.2864
     24  CB       -55.5970  -40.0940   37.0630 C.3    73  ASN73       0.1181
     25  CG       -56.1590  -40.9950   38.1410 C.2    73  ASN73       0.2629
     26  OD1      -56.5160  -42.1320   37.8680 O.2    73  ASN73      -0.2716
     27  ND2      -56.2210  -40.5030   39.3680 N.am   73  ASN73      -0.0877
     28  N        -49.3640  -31.8700   28.9920 N.3   130  THR130     -0.1218
     29  CA       -48.6940  -31.9180   30.3060 C.3   130  THR130      0.1862
     30  C        -47.9880  -33.2670   30.3840 C.2   130  THR130      0.2287
     31  O        -48.6200  -34.3200   30.3320 O.2   130  THR130     -0.2866
     32  CB       -49.6520  -31.7710   31.4850 C.3   130  THR130      0.1770
     33  OG1      -50.3850  -30.5490   31.3680 O.3   130  THR130     -0.2211
     34  CG2      -48.8860  -31.7960   32.8450 C.3   130  THR130      0.0375
     35  N        -45.2000  -35.0240   32.7330 N.3   132  SER132     -0.1217
     36  CA       -44.6730  -34.7570   34.0590 C.3   132  SER132      0.1889
     37  C        -43.2770  -35.2930   34.3040 C.2   132  SER132      0.2288
     38  O        -43.0730  -36.0540   35.2390 O.2   132  SER132     -0.2866
     39  CB       -45.6040  -35.3750   35.0980 C.3   132  SER132      0.2089
     40  OG       -46.8830  -34.8160   34.9960 O.3   132  SER132     -0.2183
     41  N        -40.1200  -41.5830   38.6060 N.3   150  LYS150     -0.1245
     42  CA       -41.2910  -42.2270   39.2090 C.3   150  LYS150      0.1561
     43  C        -41.4320  -43.6820   38.6740 C.2   150  LYS150      0.2260
     44  O        -40.4700  -44.4430   38.7580 O.2   150  LYS150     -0.2867
     45  CB       -42.5520  -41.3770   38.9990 C.3   150  LYS150      0.0271
     46  CG       -42.4040  -39.9840   39.5360 C.3   150  LYS150      0.0035
     47  CD       -43.5340  -39.0750   39.0800 C.3   150  LYS150      0.0206
     48  CE       -43.3430  -38.5380   37.6990 C.3   150  LYS150      0.1093
     49  NZ       -44.2150  -37.3700   37.5210 N.3   150  LYS150     -0.1314
     50  N        -45.9520  -30.6000   34.7370 N.3   186  ASP186     -0.1239
     51  CA       -47.2030  -30.4630   35.4670 C.3   186  ASP186      0.1674
     52  C        -47.1180  -29.3680   36.5120 C.2   186  ASP186      0.2266
     53  O        -48.1320  -28.8220   36.8790 O.2   186  ASP186     -0.2867
     54  CB       -47.6120  -31.7850   36.0870 C.3   186  ASP186      0.1410
     55  CG       -46.5120  -32.4040   36.8800 C.2   186  ASP186      0.3668
     56  OD1      -45.3530  -31.9680   36.6830 O.co2 186  ASP186     -0.2456
     57  OD2      -46.7850  -33.3440   37.6820 O.co2 186  ASP186     -0.2456
     58  N        -49.8870  -26.5980   36.4360 N.3   190  THR190     -0.1218
     59  CA       -50.5270  -26.3000   37.7100 C.3   190  THR190      0.1862
     60  C        -50.2700  -24.8280   38.1220 C.2   190  THR190      0.2287
     61  O        -51.1020  -24.2020   38.7830 O.2   190  THR190     -0.2866
     62  CB       -50.0260  -27.2670   38.8130 C.3   190  THR190      0.1770
     63  OG1      -50.5310  -28.5880   38.5680 O.3   190  THR190     -0.2211
     64  CG2      -50.4590  -26.8090   40.1800 C.3   190  THR190      0.0375
     65  N        -45.9870  -29.5200   43.2440 N.3   206  ILE206     -0.1245
     66  CA       -46.6110  -30.8150   43.0980 C.3   206  ILE206      0.1561
     67  C        -46.0760  -31.6640   44.2110 C.2   206  ILE206      0.2260
     68  O        -44.8380  -31.7950   44.3640 O.2   206  ILE206     -0.2867
     69  CB       -46.2490  -31.4530   41.7550 C.3   206  ILE206      0.0252
     70  CG1      -46.8440  -30.6430   40.6320 C.3   206  ILE206      0.0019
     71  CG2      -46.7980  -32.8580   41.6630 C.3   206  ILE206      0.0019
     72  CD1      -48.3500  -30.7150   40.6110 C.3   206  ILE206      0.0001
     73  N        -47.2400  -35.4470   45.0610 N.3   208  GLY208     -0.1210
     74  CA       -48.1310  -36.5160   44.6490 C.3   208  GLY208      0.1956
     75  C        -47.3420  -37.7640   44.4130 C.2   208  GLY208      0.2613
     76  O        -46.5960  -38.1700   45.2800 O.2   208  GLY208     -0.2717
     77  N        -47.4730  -38.3900   43.2470 N.am  209  THR209     -0.1938
     78  CA       -46.5750  -39.5220   42.9420 C.3   209  THR209      0.2028
     79  C        -45.0940  -39.0880   43.0850 C.2   209  THR209      0.2642
     80  O        -44.2910  -39.7710   43.7150 O.2   209  THR209     -0.2714
     81  CB       -46.8400  -40.1330   41.5560 C.3   209  THR209      0.1808
     82  OG1      -48.2450  -40.3950   41.4060 O.3   209  THR209     -0.2208
     83  CG2      -46.0760  -41.4480   41.4050 C.3   209  THR209      0.0379
     84  N        -44.7490  -37.9370   42.5260 N.am  210  GLY210     -0.1954
     85  CA       -43.4010  -37.3900   42.6860 C.3   210  GLY210      0.1869
     86  C        -43.5370  -36.0190   43.2880 C.2   210  GLY210      0.2309
     87  O        -44.6550  -35.5810   43.5570 O.2   210  GLY210     -0.2863
     88  N        -50.9560  -28.9540   43.7900 N.3   387  ASP387     -0.1225
     89  CA       -51.7120  -30.1310   43.3500 C.3   387  ASP387      0.1805
     90  C        -50.9190  -31.3820   43.7750 C.2   387  ASP387      0.2598
     91  O        -49.8490  -31.2680   44.3920 O.2   387  ASP387     -0.2718
     92  CB       -51.9420  -30.0940   41.8150 C.3   387  ASP387      0.1424
     93  CG       -53.2470  -30.7860   41.3740 C.2   387  ASP387      0.3668
     94  OD1      -53.7700  -31.6180   42.1590 O.co2 387  ASP387     -0.2456
     95  OD2      -53.7470  -30.5070   40.2350 O.co2 387  ASP387     -0.2456
     96  N        -51.4430  -32.5660   43.4630 N.am  388  GLY388     -0.1942
     97  CA       -50.8130  -33.8210   43.8530 C.3   388  GLY388      0.2014
     98  C        -51.5200  -34.5090   45.0210 C.2   388  GLY388      0.2639
     99  O        -51.9800  -33.8600   45.9570 O.2   388  GLY388     -0.2714
    100  N        -51.5730  -35.8340   44.9710 N.am  389  SER389     -0.1949
    101  CA       -52.3070  -36.6320   45.9470 C.3   389  SER389      0.1924
    102  C        -51.9760  -36.3600   47.4170 C.2   389  SER389      0.2314
    103  O        -52.8750  -36.1810   48.2130 O.2   389  SER389     -0.2863
    104  CB       -52.0900  -38.1110   45.6490 C.3   389  SER389      0.2116
    105  OG       -52.8140  -38.4520   44.4920 O.3   389  SER389     -0.2180
    106  N        -53.3740  -32.6830   48.4100 N.3   392  LYS392     -0.1245
    107  CA       -54.8240  -32.7880   48.2980 C.3   392  LYS392      0.1561
    108  C        -55.4670  -33.7350   49.3400 C.2   392  LYS392      0.2260
    109  O        -56.4170  -33.3450   50.0290 O.2   392  LYS392     -0.2867
    110  CB       -55.1970  -33.2690   46.8840 C.3   392  LYS392      0.0271
    111  CG       -55.1540  -32.1720   45.7950 C.3   392  LYS392      0.0035
    112  CD       -56.5510  -31.8850   45.1900 C.3   392  LYS392      0.0206
    113  CE       -56.4900  -30.7990   44.0950 C.3   392  LYS392      0.1093
    114  NZ       -57.5850  -30.9310   43.0650 N.3   392  LYS392     -0.1314
    115  N        -56.8640  -29.1610   37.5510 N.3   422  GLY422     -0.1210
    116  CA       -55.6780  -29.8670   37.0770 C.3   422  GLY422      0.1956
    117  C        -54.9510  -29.1410   35.9640 C.2   422  GLY422      0.2612
    118  O        -55.4550  -28.1880   35.4040 O.2   422  GLY422     -0.2717
    119  N        -53.7690  -29.6470   35.6380 N.am  423  SER423     -0.1952
    120  CA       -52.8200  -28.9910   34.7340 C.3   423  SER423      0.1924
    121  C        -53.3900  -28.6410   33.3650 C.2   423  SER423      0.2314
    122  O        -53.0100  -27.6420   32.7880 O.2   423  SER423     -0.2863
    123  CB       -51.5770  -29.8670   34.5460 C.3   423  SER423      0.2116
    124  OG       -50.9540  -30.1700   35.7880 O.3   423  SER423     -0.2180
@<TRIPOS>BOND
     1    28    29    1
     2     1     2    1
     3    29    30    1
     4    29    32    1
     5    31    30    2
     6     2     3    1
     7     2     5    1
     8    33    32    1
     9    32    34    1
    10     3     4    2
    11     5     6    1
    12    35    36    1
    13   122   121    2
    14   121   120    1
    15     6     7   ar
    16     6     8   ar
    17    36    37    1
    18    36    39    1
    19    37    38    2
    20   123   120    1
    21   123   124    1
    22   120   119    1
    23    50    51    1
    24    40    39    1
    25    23    22    2
    26    22    21    1
    27   118   117    2
    28    51    54    1
    29    51    52    1
    30   119   117   am
    31   117   116    1
    32    54    55    1
    33     9    10    1
    34    58    59    1
    35    52    53    2
    36    21    24    1
    37    21    20    1
    38    56    55   ar
    39    55    57   ar
    40    12    11    2
    41    24    25    1
    42   116   115    1
    43    49    48    1
    44    20    15   am
    45    10    11    1
    46    48    47    1
    47    59    60    1
    48    59    62    1
    49    11    13   am
    50    26    25    2
    51    16    15    2
    52    60    61    2
    53    25    27   am
    54    15    14    1
    55    63    62    1
    56    41    42    1
    57    43    44    2
    58    43    42    1
    59    62    64    1
    60    13    14    1
    61    45    42    1
    62    45    46    1
    63    47    46    1
    64    14    17    1
    65    95    93   ar
    66    18    17    1
    67    17    19    1
    68    72    70    1
    69    70    69    1
    70    93    92    1
    71    93    94   ar
    72    83    81    1
    73    82    81    1
    74    81    78    1
    75    71    69    1
    76    69    66    1
    77    92    89    1
    78    84    85    1
    79    84    79   am
    80    85    86    1
    81    78    79    1
    82    78    77    1
    83   114   113    1
    84    79    80    2
    85    66    65    1
    86    66    67    1
    87    77    75   am
    88    86    87    2
    89    89    90    1
    90    89    88    1
    91    96    90   am
    92    96    97    1
    93    90    91    2
    94    97    98    1
    95   113   112    1
    96    67    68    2
    97    75    74    1
    98    75    76    2
    99   105   104    1
   100    74    73    1
   101   100    98   am
   102   100   101    1
   103    98    99    2
   104   112   111    1
   105   104   101    1
   106   111   110    1
   107   101   102    1
   108   110   107    1
   109   102   103    2
   110   107   106    1
   111   107   108    1
   112   108   109    2
