@<TRIPOS>MOLECULE
tmp/2nztA01.pdb
 112 102 0 0 0
SMALL
GASTEIGER

@<TRIPOS>ATOM
      1  N          9.5400   -4.0570   13.4130 N.3    68  ASP68      -0.1239
      2  CA         8.9300   -2.9630   14.1760 C.3    68  ASP68       0.1674
      3  C          8.2650   -2.0740   13.1660 C.2    68  ASP68       0.2266
      4  O          8.9360   -1.3350   12.4930 O.2    68  ASP68      -0.2867
      5  CB        10.0300   -2.2180   14.9580 C.3    68  ASP68       0.1410
      6  CG         9.4930   -1.3160   16.0300 C.2    68  ASP68       0.3668
      7  OD1        8.2440   -1.1490   16.1580 O.co2  68  ASP68      -0.2456
      8  OD2       10.3470   -0.7680   16.7730 O.co2  68  ASP68      -0.2456
      9  N          5.4580    2.9390   13.4340 N.3    71  GLY71      -0.1210
     10  CA         5.9600    4.1780   13.9520 C.3    71  GLY71       0.1956
     11  C          6.7600    4.9110   12.8860 C.2    71  GLY71       0.2613
     12  O          6.6430    4.6050   11.6660 O.2    71  GLY71      -0.2717
     13  N          7.5880    5.8710   13.3190 N.am   72  THR72      -0.1938
     14  CA         8.2820    6.7430   12.3600 C.3    72  THR72       0.2028
     15  C          9.3480    5.9660   11.6290 C.2    72  THR72       0.2642
     16  O          9.6290    6.2650   10.4880 O.2    72  THR72      -0.2714
     17  CB         8.8960    7.9920   13.0090 C.3    72  THR72       0.1808
     18  OG1        9.5970    7.6050   14.1820 O.3    72  THR72      -0.2208
     19  CG2        7.8220    8.9820   13.4020 C.3    72  THR72       0.0379
     20  N          9.9080    4.9430   12.2720 N.am   73  ASN73      -0.1971
     21  CA        10.9340    4.0900   11.6340 C.3    73  ASN73       0.1688
     22  C         10.6220    2.5640   11.6400 C.2    73  ASN73       0.2292
     23  O         10.5530    1.9180   12.7050 O.2    73  ASN73      -0.2864
     24  CB        12.3050    4.3030   12.3020 C.3    73  ASN73       0.1181
     25  CG        12.7960    5.7490   12.2320 C.2    73  ASN73       0.2629
     26  OD1       13.1410    6.3370   13.2680 O.2    73  ASN73      -0.2716
     27  ND2       12.8490    6.3230   11.0090 N.am   73  ASN73      -0.0877
     28  N         11.8180   -0.9970   11.2490 N.3    75  ARG75      -0.1245
     29  CA        13.0670   -1.5360   11.7250 C.3    75  ARG75       0.1563
     30  C         13.0130   -3.0690   11.7190 C.2    75  ARG75       0.2260
     31  O         11.9740   -3.6820   12.0700 O.2    75  ARG75      -0.2867
     32  CB        13.3260   -1.0070   13.1310 C.3    75  ARG75       0.0307
     33  CG        14.7640   -0.8840   13.4610 C.3    75  ARG75       0.0489
     34  CD        14.9500   -0.4530   14.8740 C.3    75  ARG75       0.2205
     35  NE        14.4520    0.9100   15.1540 N.pl3  75  ARG75      -0.0865
     36  CZ        15.2130    1.9950   15.3210 C.cat  75  ARG75       0.5346
     37  NH1       16.5220    1.9360   15.2080 N.pl3  75  ARG75       0.1354
     38  NH2       14.6580    3.1450   15.6040 N.pl3  75  ARG75       0.1354
     39  N          1.9420   -1.9690   14.8310 N.3   132  SER132     -0.1217
     40  CA         1.3460   -0.9230   15.6330 C.3   132  SER132      0.1889
     41  C          0.0090   -0.4640   15.1280 C.2   132  SER132      0.2288
     42  O         -0.2080    0.7200   14.9450 O.2   132  SER132     -0.2866
     43  CB         2.3060    0.2330   15.6960 C.3   132  SER132      0.2089
     44  OG         3.5870   -0.2810   15.9790 O.3   132  SER132     -0.2183
     45  N          2.4750   -2.1050   19.4690 N.3   186  ASP186     -0.1239
     46  CA         3.6610   -1.4310   19.9630 C.3   186  ASP186      0.1674
     47  C          3.5370   -1.0820   21.4360 C.2   186  ASP186      0.2266
     48  O          4.5450   -1.0920   22.1450 O.2   186  ASP186     -0.2867
     49  CB         4.0930   -0.2430   19.0600 C.3   186  ASP186      0.1410
     50  CG         3.0720    0.8160   18.9380 C.2   186  ASP186      0.3668
     51  OD1        1.9050    0.5430   19.3030 O.co2 186  ASP186     -0.2456
     52  OD2        3.4430    1.9280   18.4710 O.co2 186  ASP186     -0.2456
     53  N          2.2550    4.8190   24.3640 N.3   206  ILE206     -0.1245
     54  CA         2.9420    5.3440   23.2030 C.3   206  ILE206      0.1561
     55  C          2.3850    6.7420   22.9360 C.2   206  ILE206      0.2260
     56  O          1.1710    6.9160   22.8440 O.2   206  ILE206     -0.2867
     57  CB         2.7280    4.4570   21.9850 C.3   206  ILE206      0.0252
     58  CG1        3.3250    3.0710   22.2210 C.3   206  ILE206      0.0019
     59  CG2        3.3330    5.0680   20.7430 C.3   206  ILE206      0.0019
     60  CD1        4.8720    3.0060   22.1130 C.3   206  ILE206      0.0001
     61  N          3.6300    9.0040   20.0160 N.3   208  GLY208     -0.1210
     62  CA         4.5400    9.1470   18.8860 C.3   208  GLY208      0.1956
     63  C          3.7650    9.6120   17.6890 C.2   208  GLY208      0.2613
     64  O          3.0650   10.5940   17.7780 O.2   208  GLY208     -0.2717
     65  N          3.8910    8.9000   16.5650 N.am  209  THR209     -0.1938
     66  CA         3.1490    9.2090   15.3480 C.3   209  THR209      0.2028
     67  C          1.6880    9.1340   15.6620 C.2   209  THR209      0.2642
     68  O          0.9230   10.0030   15.3010 O.2   209  THR209     -0.2714
     69  CB         3.5050    8.2380   14.2240 C.3   209  THR209      0.1808
     70  OG1        4.9020    8.3100   13.9510 O.3   209  THR209     -0.2208
     71  CG2        2.8110    8.5600   12.9720 C.3   209  THR209      0.0379
     72  N          1.2960    8.1000   16.3850 N.am  210  GLY210     -0.1954
     73  CA        -0.0710    8.0200   16.9810 C.3   210  GLY210      0.1869
     74  C          0.0100    7.9300   18.5080 C.2   210  GLY210      0.2309
     75  O          1.0900    8.0330   19.0860 O.2   210  GLY210     -0.2863
     76  N          7.1090    4.8590   25.1690 N.3   390  ASP390     -0.1225
     77  CA         8.0020    5.1680   24.0330 C.3   390  ASP390      0.1805
     78  C          7.2940    6.2270   23.1900 C.2   390  ASP390      0.2598
     79  O          6.2680    6.7660   23.6160 O.2   390  ASP390     -0.2718
     80  CB         8.3320    3.9090   23.2160 C.3   390  ASP390      0.1424
     81  CG         9.7520    3.9080   22.6180 C.2   390  ASP390      0.3668
     82  OD1       10.3670    4.9620   22.5040 O.co2 390  ASP390     -0.2456
     83  OD2       10.2580    2.8410   22.2460 O.co2 390  ASP390     -0.2456
     84  N          7.8610    6.5660   22.0340 N.am  391  GLY391     -0.1942
     85  CA         7.2630    7.5430   21.1250 C.3   391  GLY391      0.2014
     86  C          8.0560    8.8390   20.9800 C.2   391  GLY391      0.2639
     87  O          8.6190    9.3430   21.9300 O.2   391  GLY391     -0.2714
     88  N          8.0660    9.3940   19.7850 N.am  392  SER392     -0.1949
     89  CA         8.7920   10.6370   19.5190 C.3   392  SER392      0.1924
     90  C          8.3660   11.8390   20.3620 C.2   392  SER392      0.2314
     91  O          9.2090   12.6460   20.7360 O.2   392  SER392     -0.2863
     92  CB         8.6480   11.0100   18.0470 C.3   392  SER392      0.2116
     93  OG         9.5840   10.2790   17.2740 O.3   392  SER392     -0.2180
     94  N          9.4400   11.1450   24.1720 N.3   395  LYS395     -0.1245
     95  CA        10.9150   11.1260   24.2200 C.3   395  LYS395      0.1561
     96  C         11.5970   12.4490   23.8250 C.2   395  LYS395      0.2260
     97  O         12.6250   12.8110   24.4090 O.2   395  LYS395     -0.2867
     98  CB        11.4600   10.0320   23.3020 C.3   395  LYS395      0.0271
     99  CG        11.1090    8.5890   23.7330 C.3   395  LYS395      0.0035
    100  CD        12.3440    7.7950   24.2100 C.3   395  LYS395      0.0206
    101  CE        12.4600    6.4380   23.5080 C.3   395  LYS395      0.1093
    102  NZ        13.8750    5.9740   23.3530 N.3   395  LYS395     -0.1314
    103  N         13.3450    0.0390   22.5080 N.3   425  GLY425     -0.1210
    104  CA        12.2660   -0.1180   21.5700 C.3   425  GLY425      0.1956
    105  C         11.5190   -1.4120   21.7790 C.2   425  GLY425      0.2612
    106  O         11.8810   -2.2120   22.6440 O.2   425  GLY425     -0.2717
    107  N         10.4720   -1.5950   20.9710 N.am  426  SER426     -0.1952
    108  CA         9.4620   -2.6260   21.1890 C.3   426  SER426      0.1924
    109  C          9.9970   -3.9950   20.8990 C.2   426  SER426      0.2314
    110  O          9.5630   -4.9610   21.5080 O.2   426  SER426     -0.2863
    111  CB         8.2110   -2.3580   20.3420 C.3   426  SER426      0.2116
    112  OG         7.4180   -1.3280   20.9150 O.3   426  SER426     -0.2180
@<TRIPOS>BOND
     1    16    15    2
     2    27    25   am
     3    28    29    1
     4    15    20   am
     5    15    14    1
     6    21    22    1
     7    21    20    1
     8    21    24    1
     9    22    23    2
    10    12    11    2
    11    30    29    1
    12    30    31    2
    13    29    32    1
    14    25    24    1
    15    25    26    2
    16    14    17    1
    17    14    13    1
    18     4     3    2
    19    11    13   am
    20    11    10    1
    21    71    69    1
    22    17    19    1
    23    17    18    1
    24    32    33    1
    25     3     2    1
    26     1     2    1
    27     9    10    1
    28    33    34    1
    29    70    69    1
    30     2     5    1
    31    69    66    1
    32    39    40    1
    33    34    35    1
    34    42    41    2
    35     5     6    1
    36    41    40    1
    37    35    36    2
    38    37    36    1
    39    68    67    2
    40    36    38    1
    41    66    67    1
    42    66    65    1
    43    40    43    1
    44    67    72   am
    45    43    44    1
    46     6     7   ar
    47     6     8   ar
    48    72    73    1
    49    65    63   am
    50    73    74    1
    51    93    92    1
    52    63    64    2
    53    63    62    1
    54    92    89    1
    55    52    50   ar
    56    74    75    2
    57    62    61    1
    58    50    49    1
    59    50    51   ar
    60    49    46    1
    61    45    46    1
    62    89    88    1
    63    89    90    1
    64    88    86   am
    65    46    47    1
    66   111   112    1
    67   111   108    1
    68    90    91    2
    69    59    57    1
    70   109   108    1
    71   109   110    2
    72   107   108    1
    73   107   105   am
    74    86    85    1
    75    86    87    2
    76    85    84    1
    77    47    48    2
    78   104   105    1
    79   104   103    1
    80   105   106    2
    81    57    58    1
    82    57    54    1
    83    84    78   am
    84    60    58    1
    85    83    81   ar
    86    82    81   ar
    87    81    80    1
    88    56    55    2
    89    55    54    1
    90    78    79    2
    91    78    77    1
    92    54    53    1
    93    80    77    1
    94    98    99    1
    95    98    95    1
    96   102   101    1
    97   101   100    1
    98    99   100    1
    99    96    95    1
   100    96    97    2
   101    77    76    1
   102    94    95    1
