@<TRIPOS>MOLECULE
tmp/2nzuA00.pdb
 157 149 0 0 0
SMALL
GASTEIGER

@<TRIPOS>ATOM
      1  N         54.2280   20.3460   59.7180 N.3    15  ASN15      -0.1225
      2  CA        54.8250   19.3480   60.5550 C.3    15  ASN15       0.1785
      3  C         53.7750   18.2760   60.7530 C.2    15  ASN15       0.2597
      4  O         52.6700   18.5860   61.1910 O.2    15  ASN15      -0.2718
      5  CB        55.2310   20.0100   61.8640 C.3    15  ASN15       0.1169
      6  CG        55.9310   19.0780   62.8070 C.2    15  ASN15       0.2627
      7  OD1       56.6680   19.5570   63.6440 O.2    15  ASN15      -0.2716
      8  ND2       55.6910   17.7620   62.7100 N.am   15  ASN15      -0.0877
      9  N         54.1270   17.0300   60.4080 N.am   16  ILE16      -0.1966
     10  CA        53.2340   15.8730   60.5440 C.3    16  ILE16       0.1727
     11  C         52.5020   15.8670   61.8980 C.2    16  ILE16       0.2616
     12  O         51.3090   15.5640   61.9640 O.2    16  ILE16      -0.2715
     13  CB        54.0180   14.5330   60.3580 C.3    16  ILE16       0.0290
     14  CG1       53.0420   13.3570   60.3650 C.3    16  ILE16       0.0022
     15  CG2       55.0330   14.3140   61.4960 C.3    16  ILE16       0.0023
     16  CD1       53.6880   11.9720   60.1840 C.3    16  ILE16       0.0001
     17  N         53.2190   16.2020   62.9660 N.am   17  PHE17      -0.1960
     18  CA        52.6580   16.2560   64.3100 C.3    17  PHE17       0.1771
     19  C         51.4210   17.1730   64.3380 C.2    17  PHE17       0.2619
     20  O         50.3390   16.7310   64.7010 O.2    17  PHE17      -0.2715
     21  CB        53.7510   16.7600   65.2520 C.3    17  PHE17       0.0574
     22  CG        53.3040   16.9630   66.6670 C.ar   17  PHE17      -0.0200
     23  CD1       53.1230   18.2530   67.1730 C.ar   17  PHE17      -0.0042
     24  CD2       53.1150   15.8720   67.5160 C.ar   17  PHE17      -0.0042
     25  CE1       52.7570   18.4540   68.5020 C.ar   17  PHE17      -0.0003
     26  CE2       52.7540   16.0630   68.8440 C.ar   17  PHE17      -0.0003
     27  CZ        52.5770   17.3580   69.3410 C.ar   17  PHE17      -0.0000
     28  N         51.5820   18.4390   63.9370 N.am   18  TYR18      -0.1974
     29  CA        50.4730   19.3960   63.9280 C.3    18  TYR18       0.1639
     30  C         49.4480   19.1170   62.8280 C.2    18  TYR18       0.2290
     31  O         48.2540   19.3640   63.0070 O.2    18  TYR18      -0.2864
     32  CB        51.0000   20.8340   63.7830 C.3    18  TYR18       0.0560
     33  CG        51.8840   21.2830   64.9280 C.ar   18  TYR18      -0.0198
     34  CD1       51.3820   21.4010   66.2190 C.ar   18  TYR18      -0.0009
     35  CD2       53.2380   21.5480   64.7230 C.ar   18  TYR18      -0.0009
     36  CE1       52.2090   21.7660   67.2860 C.ar   18  TYR18       0.0417
     37  CE2       54.0710   21.9150   65.7780 C.ar   18  TYR18       0.0417
     38  CZ        53.5510   22.0180   67.0580 C.ar   18  TYR18       0.1957
     39  OH        54.3830   22.3450   68.1060 O.3    18  TYR18      -0.2866
     40  N         55.7260   29.2350   66.4760 N.3    43  GLN43      -0.1245
     41  CA        56.2480   29.3610   67.8420 C.3    43  GLN43       0.1566
     42  C         56.7530   30.7660   68.1490 C.2    43  GLN43       0.2260
     43  O         57.6710   30.9420   68.9520 O.2    43  GLN43      -0.2867
     44  CB        57.4010   28.3770   68.0730 C.3    43  GLN43       0.0367
     45  CG        56.9870   26.9310   68.1980 C.3    43  GLN43       0.0905
     46  CD        56.1510   26.6860   69.4220 C.2    43  GLN43       0.2608
     47  OE1       56.5860   26.9360   70.5470 O.2    43  GLN43      -0.2717
     48  NE2       54.9380   26.1960   69.2170 N.am   43  GLN43      -0.0878
     49  N         54.1160   25.4810   71.7920 N.3    68  GLY68      -0.1225
     50  CA        55.1040   24.7910   72.5950 C.3    68  GLY68       0.1811
     51  C         55.3580   25.5460   73.8820 C.2    68  GLY68       0.2280
     52  O         55.9520   25.0110   74.8210 O.2    68  GLY68      -0.2866
     53  N         60.5050   24.5910   76.3790 N.3   132  GLU132     -0.1245
     54  CA        59.0870   24.2510   76.3330 C.3   132  GLU132      0.1567
     55  C         58.6670   23.3780   77.5120 C.2   132  GLU132      0.2260
     56  O         59.1640   22.2680   77.6870 O.2   132  GLU132     -0.2867
     57  CB        58.7740   23.5470   75.0130 C.3   132  GLU132      0.0388
     58  CG        59.0500   24.4240   73.8080 C.3   132  GLU132      0.1160
     59  CD        58.8020   23.7260   72.4930 C.2   132  GLU132      0.3649
     60  OE1       59.0260   24.3620   71.4450 O.co2 132  GLU132     -0.2457
     61  OE2       58.3820   22.5480   72.4990 O.co2 132  GLU132     -0.2457
     62  N         56.3850   21.2330   78.2330 N.3   134  ILE134     -0.1245
     63  CA        56.0790   19.8100   78.0910 C.3   134  ILE134      0.1561
     64  C         57.3790   19.0150   78.2360 C.2   134  ILE134      0.2260
     65  O         57.3830   17.8660   78.6810 O.2   134  ILE134     -0.2867
     66  CB        55.4380   19.4840   76.7180 C.3   134  ILE134      0.0252
     67  CG1       54.0210   20.0510   76.6550 C.3   134  ILE134      0.0019
     68  CG2       55.3670   17.9690   76.5150 C.3   134  ILE134      0.0019
     69  CD1       53.4020   19.9980   75.2770 C.3   134  ILE134      0.0001
     70  N         58.0970   15.6700   80.4270 N.3   139  LYS139     -0.1245
     71  CA        58.8970   14.5740   79.9100 C.3   139  LYS139      0.1561
     72  C         60.1960   14.3660   80.6780 C.2   139  LYS139      0.2260
     73  O         60.5380   13.2430   81.0450 O.2   139  LYS139     -0.2867
     74  CB        59.1830   14.8010   78.4320 C.3   139  LYS139      0.0271
     75  CG        57.9290   14.6980   77.5870 C.3   139  LYS139      0.0035
     76  CD        58.2470   14.8550   76.1230 C.3   139  LYS139      0.0206
     77  CE        57.0680   14.4600   75.2610 C.3   139  LYS139      0.1093
     78  NZ        57.3610   14.7530   73.8230 N.3   139  LYS139     -0.1314
     79  N         63.8400   18.8640   67.4860 N.3   164  TYR164     -0.1241
     80  CA        62.7600   18.1420   66.8190 C.3   164  TYR164      0.1605
     81  C         63.0690   17.6690   65.4070 C.2   164  TYR164      0.2264
     82  O         62.2960   16.9160   64.8110 O.2   164  TYR164     -0.2867
     83  CB        61.4910   18.9980   66.8130 C.3   164  TYR164      0.0534
     84  CG        61.0110   19.3440   68.1990 C.ar  164  TYR164     -0.0201
     85  CD1       60.6270   18.3430   69.0920 C.ar  164  TYR164     -0.0009
     86  CD2       60.9070   20.6670   68.6100 C.ar  164  TYR164     -0.0009
     87  CE1       60.1400   18.6500   70.3650 C.ar  164  TYR164      0.0417
     88  CE2       60.4190   20.9920   69.8870 C.ar  164  TYR164      0.0417
     89  CZ        60.0360   19.9790   70.7540 C.ar  164  TYR164      0.1957
     90  OH        59.5290   20.2920   71.9920 O.3   164  TYR164     -0.2866
     91  N         60.5020   12.4310   70.6550 N.3   190  THR190     -0.1203
     92  CA        59.7740   12.6380   69.4100 C.3   190  THR190      0.1994
     93  C         60.2090   11.6020   68.4090 C.2   190  THR190      0.2618
     94  O         61.3870   11.2750   68.3390 O.2   190  THR190     -0.2717
     95  CB        60.0940   14.0570   68.8600 C.3   190  THR190      0.1784
     96  OG1       58.9600   14.9020   69.0340 O.3   190  THR190     -0.2211
     97  CG2       60.4920   14.0170   67.4130 C.3   190  THR190      0.0376
     98  N         59.2680   11.1050   67.6160 N.am  191  ASP191     -0.1959
     99  CA        59.5630   10.0830   66.6060 C.3   191  ASP191      0.1840
    100  C         60.5980   10.4870   65.5560 C.2   191  ASP191      0.2621
    101  O         61.4650    9.6850   65.1920 O.2   191  ASP191     -0.2715
    102  CB        58.2810    9.6590   65.8770 C.3   191  ASP191      0.1450
    103  CG        57.4960    8.5970   66.6200 C.2   191  ASP191      0.3671
    104  OD1       57.8830    8.1960   67.7360 O.co2 191  ASP191     -0.2456
    105  OD2       56.4660    8.1610   66.0710 O.co2 191  ASP191     -0.2456
    106  N         60.5000   11.7100   65.0460 N.am  192  GLU192     -0.1977
    107  CA        61.4450   12.1420   64.0270 C.3   192  GLU192      0.1602
    108  C         62.8640   12.1410   64.5530 C.2   192  GLU192      0.2287
    109  O         63.7860   11.7610   63.8420 O.2   192  GLU192     -0.2864
    110  CB        61.1170   13.5360   63.5000 C.3   192  GLU192      0.0415
    111  CG        62.0490   13.9480   62.3740 C.3   192  GLU192      0.1163
    112  CD        61.6390   15.2340   61.7020 C.2   192  GLU192      0.3649
    113  OE1       60.4140   15.4940   61.5830 O.co2 192  GLU192     -0.2457
    114  OE2       62.5500   15.9750   61.2730 O.co2 192  GLU192     -0.2457
    115  N         58.3590    8.9600   70.8510 N.3   217  PHE217     -0.1227
    116  CA        57.1520    9.5190   71.4310 C.3   217  PHE217      0.1736
    117  C         56.2310   10.0950   70.3610 C.2   217  PHE217      0.2595
    118  O         56.6850   10.8430   69.4960 O.2   217  PHE217     -0.2718
    119  CB        57.5730   10.6090   72.4240 C.3   217  PHE217      0.0547
    120  CG        56.5790   10.8680   73.5150 C.ar  217  PHE217     -0.0202
    121  CD1       55.3540   11.4700   73.2400 C.ar  217  PHE217     -0.0042
    122  CD2       56.8790   10.5250   74.8270 C.ar  217  PHE217     -0.0042
    123  CE1       54.4380   11.7270   74.2630 C.ar  217  PHE217     -0.0003
    124  CE2       55.9730   10.7780   75.8560 C.ar  217  PHE217     -0.0003
    125  CZ        54.7490   11.3810   75.5740 C.ar  217  PHE217     -0.0000
    126  N         54.9460    9.7370   70.4410 N.am  218  ASP218     -0.1974
    127  CA        53.8730   10.1880   69.5310 C.3   218  ASP218      0.1709
    128  C         53.2950    9.0610   68.7090 C.2   218  ASP218      0.2293
    129  O         52.1100    9.0580   68.3930 O.2   218  ASP218     -0.2864
    130  CB        54.3400   11.2810   68.5600 C.3   218  ASP218      0.1436
    131  CG        54.5520   12.6230   69.2370 C.2   218  ASP218      0.3671
    132  OD1       55.0670   13.5320   68.5600 O.co2 218  ASP218     -0.2456
    133  OD2       54.2090   12.7790   70.4310 O.co2 218  ASP218     -0.2456
    134  N         53.8380    8.3310   65.5570 N.3   220  THR220     -0.1218
    135  CA        53.4130    8.8410   64.2600 C.3   220  THR220      0.1862
    136  C         53.6180    7.7100   63.2590 C.2   220  THR220      0.2287
    137  O         53.9710    6.5850   63.6270 O.2   220  THR220     -0.2866
    138  CB        54.2820   10.0120   63.7870 C.3   220  THR220      0.1770
    139  OG1       55.6030    9.5290   63.4970 O.3   220  THR220     -0.2211
    140  CG2       54.3590   11.0860   64.8530 C.3   220  THR220      0.0375
    141  N         55.9330    7.5960   61.1610 N.3   222  LEU222     -0.1245
    142  CA        57.3680    7.3910   61.0030 C.3   222  LEU222      0.1561
    143  C         57.8310    6.1640   61.7690 C.2   222  LEU222      0.2260
    144  O         58.7750    5.5070   61.3580 O.2   222  LEU222     -0.2867
    145  CB        58.1420    8.6150   61.4910 C.3   222  LEU222      0.0270
    146  CG        57.8660    9.9530   60.7890 C.3   222  LEU222      0.0019
    147  CD1       58.5550   11.0720   61.5610 C.3   222  LEU222      0.0001
    148  CD2       58.3560    9.9250   59.3460 C.3   222  LEU222      0.0001
    149  N         50.6460    8.9290   71.5600 N.3   235  GLN235     -0.1245
    150  CA        49.8800   10.1500   71.8290 C.3   235  GLN235      0.1566
    151  C         48.9320   10.1940   70.6320 C.2   235  GLN235      0.2260
    152  O         49.3840   10.2900   69.4900 O.2   235  GLN235     -0.2867
    153  CB        50.7510   11.4140   71.8550 C.3   235  GLN235      0.0367
    154  CG        49.9520   12.6420   72.3540 C.3   235  GLN235      0.0905
    155  CD        50.7310   13.9460   72.3800 C.2   235  GLN235      0.2608
    156  OE1       50.2600   14.9390   72.9330 O.2   235  GLN235     -0.2717
    157  NE2       51.9190   13.9540   71.7840 N.am  235  GLN235     -0.0878
@<TRIPOS>BOND
     1   148   146    1
     2     1     2    1
     3    16    14    1
     4    13    14    1
     5    13    10    1
     6    13    15    1
     7     9    10    1
     8     9     3   am
     9    10    11    1
    10     2     3    1
    11     2     5    1
    12     3     4    2
    13   146   145    1
    14   146   147    1
    15   142   141    1
    16   142   145    1
    17   142   143    1
    18   114   112   ar
    19   144   143    2
    20   113   112   ar
    21   112   111    1
    22     5     6    1
    23    11    12    2
    24    11    17   am
    25   111   110    1
    26     8     6   am
    27     6     7    2
    28    30    31    2
    29    30    29    1
    30    17    18    1
    31   136   137    2
    32   136   135    1
    33   139   138    1
    34   110   107    1
    35    32    29    1
    36    32    33    1
    37   138   135    1
    38   138   140    1
    39   109   108    2
    40    29    28    1
    41    28    19   am
    42   107   108    1
    43   107   106    1
    44   135   134    1
    45    18    19    1
    46    18    21    1
    47    19    20    2
    48    35    33   ar
    49    35    37   ar
    50    82    81    2
    51    33    34   ar
    52   106   100   am
    53   101   100    2
    54    21    22    1
    55    81    80    1
    56   100    99    1
    57    37    38   ar
    58   102    99    1
    59   102   103    1
    60   105   103   ar
    61    34    36   ar
    62    40    41    1
    63    99    98    1
    64   103   104   ar
    65    22    23   ar
    66    22    24   ar
    67    83    80    1
    68    83    84    1
    69    80    79    1
    70    38    36   ar
    71    38    39    1
    72    23    25   ar
    73    97    95    1
    74    24    26   ar
    75    98    93   am
    76    41    44    1
    77    41    42    1
    78    44    45    1
    79    42    43    2
    80    45    46    1
    81    84    86   ar
    82    84    85   ar
    83    94    93    2
    84   129   128    2
    85    93    92    1
    86    25    27   ar
    87   130   131    1
    88   130   127    1
    89   132   131   ar
    90    86    88   ar
    91   128   127    1
    92    26    27   ar
    93    95    96    1
    94    95    92    1
    95    85    87   ar
    96    48    46   am
    97   131   133   ar
    98    92    91    1
    99    46    47    2
   100   152   151    2
   101   118   117    2
   102   127   126    1
   103    88    89   ar
   104   117   126   am
   105   117   116    1
   106    87    89   ar
   107   151   150    1
   108    89    90    1
   109   115   116    1
   110   116   119    1
   111    60    59   ar
   112   149   150    1
   113   157   155   am
   114    49    50    1
   115   150   153    1
   116   153   154    1
   117   154   155    1
   118   155   156    2
   119   119   120    1
   120    59    61   ar
   121    59    58    1
   122    50    51    1
   123   121   120   ar
   124   121   123   ar
   125   120   122   ar
   126    58    57    1
   127    78    77    1
   128    51    52    2
   129   123   125   ar
   130   122   124   ar
   131    57    54    1
   132    77    76    1
   133    69    67    1
   134   125   124   ar
   135    76    75    1
   136    54    53    1
   137    54    55    1
   138    68    66    1
   139    67    66    1
   140    66    63    1
   141    55    56    2
   142    75    74    1
   143    63    62    1
   144    63    64    1
   145    64    65    2
   146    74    71    1
   147    71    70    1
   148    71    72    1
   149    72    73    2
