@<TRIPOS>MOLECULE
tmp/2nzvA00.pdb
 164 156 0 0 0
SMALL
GASTEIGER

@<TRIPOS>ATOM
      1  N         17.4990   43.3940   65.3800 N.3    11  PRO11      -0.2102
      2  CA        16.1920   42.8210   65.0370 C.3    11  PRO11       0.1504
      3  C         15.7990   42.9770   63.5610 C.2    11  PRO11       0.2575
      4  O         15.4870   41.9920   62.8950 O.2    11  PRO11      -0.2718
      5  CB        15.2360   43.5650   65.9790 C.3    11  PRO11       0.0282
      6  CG        16.0940   43.8320   67.1680 C.3    11  PRO11       0.0208
      7  CD        17.3710   44.3200   66.5160 C.3    11  PRO11       0.0893
      8  N         15.8280   44.2150   63.0600 N.am   12  ASP12      -0.1974
      9  CA        15.4580   44.5180   61.6720 C.3    12  ASP12       0.1708
     10  C         16.1040   45.8260   61.1770 C.2    12  ASP12       0.2293
     11  O         15.6810   46.9100   61.5730 O.2    12  ASP12      -0.2864
     12  CB        13.9330   44.6290   61.5880 C.3    12  ASP12       0.1436
     13  CG        13.4420   44.8530   60.1850 C.2    12  ASP12       0.3671
     14  OD1       13.5070   43.9000   59.3800 O.co2  12  ASP12      -0.2456
     15  OD2       12.9860   45.9780   59.8830 O.co2  12  ASP12      -0.2456
     16  N         14.7990   49.4770   59.6950 N.3    15  ASN15      -0.1225
     17  CA        14.2580   50.4300   60.6430 C.3    15  ASN15       0.1785
     18  C         15.2390   51.5700   60.8700 C.2    15  ASN15       0.2597
     19  O         16.3880   51.3410   61.2220 O.2    15  ASN15      -0.2718
     20  CB        13.9890   49.7150   61.9590 C.3    15  ASN15       0.1169
     21  CG        13.0780   50.5060   62.8790 C.2    15  ASN15       0.2627
     22  OD1       13.1480   51.7400   62.9380 O.2    15  ASN15      -0.2716
     23  ND2       12.2280   49.7980   63.6240 N.am   15  ASN15      -0.0877
     24  N         14.7700   52.8000   60.6740 N.am   16  ILE16      -0.1966
     25  CA        15.5960   53.9950   60.8470 C.3    16  ILE16       0.1727
     26  C         16.4770   53.8450   62.0750 C.2    16  ILE16       0.2616
     27  O         17.6990   53.9620   62.0080 O.2    16  ILE16      -0.2715
     28  CB        14.7490   55.2780   61.0660 C.3    16  ILE16       0.0290
     29  CG1       13.4280   55.2060   60.2920 C.3    16  ILE16       0.0022
     30  CG2       15.5420   56.5050   60.6310 C.3    16  ILE16       0.0023
     31  CD1       12.3180   54.3960   60.9900 C.3    16  ILE16       0.0001
     32  N         15.8210   53.5890   63.2000 N.am   17  PHE17      -0.1960
     33  CA        16.4690   53.4310   64.4970 C.3    17  PHE17       0.1771
     34  C         17.5960   52.3830   64.5410 C.2    17  PHE17       0.2619
     35  O         18.7340   52.6950   64.8830 O.2    17  PHE17      -0.2715
     36  CB        15.3820   53.1280   65.5490 C.3    17  PHE17       0.0574
     37  CG        15.9230   52.8940   66.9200 C.ar   17  PHE17      -0.0200
     38  CD1       16.3120   51.6220   67.3210 C.ar   17  PHE17      -0.0042
     39  CD2       16.0720   53.9500   67.8100 C.ar   17  PHE17      -0.0042
     40  CE1       16.8380   51.4000   68.5900 C.ar   17  PHE17      -0.0003
     41  CE2       16.6030   53.7360   69.0870 C.ar   17  PHE17      -0.0003
     42  CZ        16.9820   52.4580   69.4730 C.ar   17  PHE17      -0.0000
     43  N         17.2800   51.1440   64.2020 N.am   18  TYR18      -0.1974
     44  CA        18.2770   50.0850   64.2150 C.3    18  TYR18       0.1639
     45  C         19.3760   50.2680   63.1780 C.2    18  TYR18       0.2290
     46  O         20.5300   49.9210   63.4240 O.2    18  TYR18      -0.2864
     47  CB        17.6080   48.7350   63.9950 C.3    18  TYR18       0.0560
     48  CG        16.9080   48.1980   65.2070 C.ar   18  TYR18      -0.0198
     49  CD1       17.5630   48.1470   66.4280 C.ar   18  TYR18      -0.0009
     50  CD2       15.6060   47.6920   65.1270 C.ar   18  TYR18      -0.0009
     51  CE1       16.9480   47.5990   67.5400 C.ar   18  TYR18       0.0417
     52  CE2       14.9790   47.1410   66.2280 C.ar   18  TYR18       0.0417
     53  CZ        15.6550   47.0910   67.4370 C.ar   18  TYR18       0.1957
     54  OH        15.0840   46.5010   68.5390 O.3    18  TYR18      -0.2866
     55  N         13.0760   40.1670   66.3640 N.3    43  GLN43      -0.1245
     56  CA        12.6310   40.0270   67.7430 C.3    43  GLN43       0.1566
     57  C         12.0070   38.6700   68.0290 C.2    43  GLN43       0.2260
     58  O         10.9310   38.5950   68.6280 O.2    43  GLN43      -0.2867
     59  CB        11.6100   41.1200   68.0680 C.3    43  GLN43       0.0367
     60  CG        12.1760   42.5310   68.1040 C.3    43  GLN43       0.0905
     61  CD        12.8660   42.8430   69.4130 C.2    43  GLN43       0.2608
     62  OE1       12.2740   42.7380   70.4850 O.2    43  GLN43      -0.2717
     63  NE2       14.1310   43.2370   69.3320 N.am   43  GLN43      -0.0878
     64  N         14.5880   43.9610   72.1020 N.3    68  GLY68      -0.1225
     65  CA        13.6520   44.7820   72.8210 C.3    68  GLY68       0.1811
     66  C         13.4760   44.1740   74.1840 C.2    68  GLY68       0.2280
     67  O         13.0440   44.8400   75.1290 O.2    68  GLY68      -0.2866
     68  N          8.1680   44.8690   76.8720 N.3   132  GLU132     -0.1245
     69  CA         9.6040   45.1470   76.7420 C.3   132  GLU132      0.1567
     70  C         10.1520   45.9370   77.9300 C.2   132  GLU132      0.2260
     71  O          9.8180   47.1060   78.1120 O.2   132  GLU132     -0.2867
     72  CB         9.8890   45.9070   75.4310 C.3   132  GLU132      0.0388
     73  CG         9.4560   45.1590   74.1650 C.3   132  GLU132      0.1160
     74  CD         9.9530   45.8160   72.8850 C.2   132  GLU132      0.3649
     75  OE1        9.5520   45.3780   71.7860 O.co2 132  GLU132     -0.2457
     76  OE2       10.7550   46.7690   72.9640 O.co2 132  GLU132     -0.2457
     77  N         12.5380   47.7570   78.6430 N.3   134  ILE134     -0.1231
     78  CA        12.9540   49.1320   78.4350 C.3   134  ILE134      0.1692
     79  C         11.7400   50.0520   78.5400 C.2   134  ILE134      0.2592
     80  O         11.8490   51.1910   78.9980 O.2   134  ILE134     -0.2718
     81  CB        13.7050   49.2800   77.0460 C.3   134  ILE134      0.0266
     82  CG1       14.1090   50.7360   76.7880 C.3   134  ILE134      0.0019
     83  CG2       12.8480   48.7280   75.9070 C.3   134  ILE134      0.0020
     84  CD1       12.9630   51.6420   76.3640 C.3   134  ILE134      0.0001
     85  N         10.5740   49.5450   78.1500 N.am  135  ASN135     -0.1974
     86  CA         9.3510   50.3470   78.2070 C.3   135  ASN135      0.1688
     87  C          8.6970   50.3800   79.5810 C.2   135  ASN135      0.2292
     88  O          8.8540   51.3510   80.3160 O.2   135  ASN135     -0.2864
     89  CB         8.3290   49.8660   77.1720 C.3   135  ASN135      0.1181
     90  CG         8.5810   50.4390   75.7980 C.2   135  ASN135      0.2629
     91  OD1        8.6850   51.6490   75.6270 O.2   135  ASN135     -0.2716
     92  ND2        8.6690   49.5650   74.8030 N.am  135  ASN135     -0.0877
     93  N         10.6840   53.6340   80.8250 N.3   139  LYS139     -0.1245
     94  CA         9.9630   54.8270   80.3450 C.3   139  LYS139      0.1561
     95  C          8.6480   55.1100   81.0480 C.2   139  LYS139      0.2260
     96  O          8.3570   56.2500   81.3840 O.2   139  LYS139     -0.2867
     97  CB         9.6970   54.7330   78.8380 C.3   139  LYS139      0.0271
     98  CG        10.9410   54.7910   77.9390 C.3   139  LYS139      0.0035
     99  CD        10.5620   54.9280   76.4640 C.3   139  LYS139      0.0206
    100  CE        11.7880   54.9380   75.5800 C.3   139  LYS139      0.1093
    101  NZ        11.4580   55.3150   74.1910 N.3   139  LYS139     -0.1314
    102  N          5.4350   50.0530   67.2730 N.3   164  TYR164     -0.1241
    103  CA         6.1680   51.2820   67.0130 C.3   164  TYR164      0.1605
    104  C          5.8940   51.9190   65.6480 C.2   164  TYR164      0.2264
    105  O          6.7040   52.7220   65.1470 O.2   164  TYR164     -0.2867
    106  CB         7.6620   51.0020   67.1980 C.3   164  TYR164      0.0534
    107  CG         7.9660   50.3410   68.5250 C.ar  164  TYR164     -0.0201
    108  CD1        7.9770   51.0770   69.7040 C.ar  164  TYR164     -0.0009
    109  CD2        8.2350   48.9840   68.6010 C.ar  164  TYR164     -0.0009
    110  CE1        8.2570   50.4690   70.9330 C.ar  164  TYR164      0.0417
    111  CE2        8.5150   48.3660   69.8210 C.ar  164  TYR164      0.0417
    112  CZ         8.5300   49.1090   70.9760 C.ar  164  TYR164      0.1957
    113  OH         8.8590   48.4970   72.1600 O.3   164  TYR164     -0.2866
    114  N          6.3680   57.4750   73.2920 N.3   189  GLY189     -0.1210
    115  CA         7.5650   56.6620   73.4130 C.3   189  GLY189      0.1956
    116  C          8.5070   56.6280   72.2290 C.2   189  GLY189      0.2613
    117  O          9.5610   56.0250   72.3050 O.2   189  GLY189     -0.2717
    118  N          8.1420   57.2650   71.1290 N.am  190  THR190     -0.1938
    119  CA         9.0260   57.2630   69.9860 C.3   190  THR190      0.2028
    120  C          8.5660   58.0320   68.7480 C.2   190  THR190      0.2642
    121  O          7.4200   57.9540   68.3130 O.2   190  THR190     -0.2714
    122  CB         9.3760   55.8290   69.5800 C.3   190  THR190      0.1808
    123  OG1       10.2550   55.8730   68.4590 O.3   190  THR190     -0.2208
    124  CG2        8.1250   55.0350   69.2300 C.3   190  THR190      0.0379
    125  N          9.5170   58.7680   68.1950 N.am  191  ASP191     -0.1957
    126  CA         9.3710   59.6250   67.0190 C.3   191  ASP191      0.1840
    127  C          8.3360   59.3520   65.9250 C.2   191  ASP191      0.2621
    128  O          7.5880   60.2700   65.5440 O.2   191  ASP191     -0.2715
    129  CB        10.7540   59.7760   66.3780 C.3   191  ASP191      0.1450
    130  CG        11.4360   61.0810   66.7620 C.2   191  ASP191      0.3671
    131  OD1       11.1390   61.6130   67.8580 O.co2 191  ASP191     -0.2456
    132  OD2       12.2680   61.5640   65.9650 O.co2 191  ASP191     -0.2456
    133  N          8.3040   58.1210   65.4050 N.am  192  GLU192     -0.1977
    134  CA         7.3680   57.7710   64.3330 C.3   192  GLU192      0.1602
    135  C          5.9060   57.6320   64.7780 C.2   192  GLU192      0.2287
    136  O          4.9960   57.8550   63.9700 O.2   192  GLU192     -0.2864
    137  CB         7.8310   56.5010   63.6050 C.3   192  GLU192      0.0415
    138  CG         6.7740   55.4070   63.4850 C.3   192  GLU192      0.1163
    139  CD         6.7110   54.7420   62.1000 C.2   192  GLU192      0.3649
    140  OE1        6.3100   55.4200   61.1210 O.co2 192  GLU192     -0.2457
    141  OE2        7.0550   53.5390   61.9950 O.co2 192  GLU192     -0.2457
    142  N         13.9550   59.7450   70.7120 N.3   218  ASP218     -0.1239
    143  CA        14.9730   59.3130   69.7410 C.3   218  ASP218      0.1674
    144  C         15.4850   60.4850   68.9070 C.2   218  ASP218      0.2266
    145  O         16.5910   60.4420   68.3740 O.2   218  ASP218     -0.2867
    146  CB        14.4220   58.2510   68.7690 C.3   218  ASP218      0.1410
    147  CG        14.2760   56.8740   69.3990 C.2   218  ASP218      0.3668
    148  OD1       13.8690   55.9440   68.6580 O.co2 218  ASP218     -0.2456
    149  OD2       14.5560   56.7170   70.6150 O.co2 218  ASP218     -0.2456
    150  N         14.8120   61.2690   66.0280 N.3   220  THR220     -0.1218
    151  CA        15.1680   60.7860   64.6930 C.3   220  THR220      0.1862
    152  C         14.9090   61.9290   63.7260 C.2   220  THR220      0.2287
    153  O         14.4340   62.9870   64.1390 O.2   220  THR220     -0.2866
    154  CB        14.3150   59.5720   64.2560 C.3   220  THR220      0.1770
    155  OG1       12.9440   59.9680   64.1270 O.3   220  THR220     -0.2211
    156  CG2       14.4290   58.4400   65.2720 C.3   220  THR220      0.0375
    157  N         12.6570   62.1030   61.4820 N.3   222  LEU222     -0.1245
    158  CA        11.2370   62.3210   61.2290 C.3   222  LEU222      0.1561
    159  C         10.8090   63.4980   62.0890 C.2   222  LEU222      0.2260
    160  O          9.7700   64.1070   61.8570 O.2   222  LEU222     -0.2867
    161  CB        10.3920   61.1070   61.6160 C.3   222  LEU222      0.0270
    162  CG        10.6270   59.7650   60.9250 C.3   222  LEU222      0.0019
    163  CD1       11.6890   58.9630   61.6870 C.3   222  LEU222      0.0001
    164  CD2        9.3180   58.9860   60.8840 C.3   222  LEU222      0.0001
@<TRIPOS>BOND
     1    14    13   ar
     2    16    17    1
     3    15    13   ar
     4    13    12    1
     5    29    31    1
     6    29    28    1
     7    30    28    1
     8    17    18    1
     9    17    20    1
    10    24    25    1
    11    24    18   am
    12    25    28    1
    13    25    26    1
    14    18    19    2
    15   164   162    1
    16   162   161    1
    17   162   163    1
    18   140   139   ar
    19    10    11    2
    20    10     9    1
    21   158   157    1
    22   158   161    1
    23   158   159    1
    24    12     9    1
    25     9     8    1
    26   160   159    2
    27    20    21    1
    28   141   139   ar
    29    27    26    2
    30    26    32   am
    31   139   138    1
    32    21    22    2
    33    21    23   am
    34     4     3    2
    35     8     3   am
    36    45    46    2
    37    45    44    1
    38    32    33    1
    39   138   137    1
    40     3     2    1
    41   137   134    1
    42   152   153    2
    43   152   151    1
    44   136   135    2
    45    47    44    1
    46    47    48    1
    47   155   154    1
    48    43    44    1
    49    43    34   am
    50   154   151    1
    51   154   156    1
    52   134   135    1
    53   134   133    1
    54    33    34    1
    55    33    36    1
    56    34    35    2
    57   151   150    1
    58     2     1    1
    59     2     5    1
    60    50    48   ar
    61    50    52   ar
    62   105   104    2
    63    48    49   ar
    64     1     7    1
    65   133   127   am
    66   128   127    2
    67    36    37    1
    68   104   103    1
    69   127   126    1
    70   132   130   ar
    71     5     6    1
    72    52    53   ar
    73    55    56    1
    74   129   130    1
    75   129   126    1
    76    49    51   ar
    77     7     6    1
    78   130   131   ar
    79    37    38   ar
    80    37    39   ar
    81   103   106    1
    82   103   102    1
    83   126   125    1
    84   106   107    1
    85    38    40   ar
    86    53    51   ar
    87    53    54    1
    88    56    57    1
    89    56    59    1
    90    39    41   ar
    91    57    58    2
    92    59    60    1
    93    60    61    1
    94   125   120   am
    95   121   120    2
    96   145   144    2
    97   123   122    1
    98   107   109   ar
    99   107   108   ar
   100    40    42   ar
   101   109   111   ar
   102   148   147   ar
   103   120   119    1
   104   146   147    1
   105   146   143    1
   106   144   143    1
   107    41    42   ar
   108   124   122    1
   109    63    61   am
   110   147   149   ar
   111    61    62    2
   112   122   119    1
   113   108   110   ar
   114   143   142    1
   115   111   112   ar
   116   119   118    1
   117   110   112   ar
   118   112   113    1
   119   118   116   am
   120    75    74   ar
   121    64    65    1
   122   116   117    2
   123   116   115    1
   124    65    66    1
   125    74    76   ar
   126    74    73    1
   127   114   115    1
   128    73    72    1
   129    66    67    2
   130   101   100    1
   131    92    90   am
   132    72    69    1
   133   100    99    1
   134    91    90    2
   135    90    89    1
   136    83    81    1
   137    84    82    1
   138    99    98    1
   139    69    68    1
   140    69    70    1
   141    82    81    1
   142    81    78    1
   143    89    86    1
   144    70    71    2
   145    98    97    1
   146    85    86    1
   147    85    79   am
   148    86    87    1
   149    78    79    1
   150    78    77    1
   151    79    80    2
   152    97    94    1
   153    87    88    2
   154    94    93    1
   155    94    95    1
   156    95    96    2
