@<TRIPOS>MOLECULE
tmp/2nzyC01.pdb
 135 126 0 0 0
SMALL
GASTEIGER

@<TRIPOS>ATOM
      1  N         41.6510   46.4990   79.0390 N.3   128  ARG128     -0.1245
      2  CA        41.7260   45.0590   78.9620 C.3   128  ARG128      0.1563
      3  C         41.0890   44.4020   80.2300 C.2   128  ARG128      0.2260
      4  O         40.4230   43.3630   80.1340 O.2   128  ARG128     -0.2867
      5  CB        43.1930   44.5930   78.8170 C.3   128  ARG128      0.0307
      6  CG        43.3460   43.1050   78.5240 C.3   128  ARG128      0.0489
      7  CD        42.6820   42.7480   77.1880 C.3   128  ARG128      0.2205
      8  NE        43.2390   41.5200   76.6090 N.pl3 128  ARG128     -0.0865
      9  CZ        42.7630   40.9470   75.5000 C.cat 128  ARG128      0.5346
     10  NH1       41.7500   41.5120   74.8280 N.pl3 128  ARG128      0.1354
     11  NH2       43.1570   39.7400   75.1300 N.pl3 128  ARG128      0.1354
     12  N         53.1440   35.5350   71.8260 N.3   186  VAL186     -0.1231
     13  CA        52.0890   35.7290   70.8650 C.3   186  VAL186      0.1692
     14  C         52.1620   37.1450   70.3090 C.2   186  VAL186      0.2592
     15  O         51.7980   38.1230   70.9880 O.2   186  VAL186     -0.2718
     16  CB        50.7250   35.5290   71.5110 C.3   186  VAL186      0.0266
     17  CG1       49.5920   35.7650   70.4950 C.3   186  VAL186      0.0020
     18  CG2       50.6560   34.1210   72.0630 C.3   186  VAL186      0.0020
     19  N         52.6200   37.2470   69.0670 N.am  187  ALA187     -0.1966
     20  CA        52.7290   38.5400   68.3750 C.3   187  ALA187      0.1728
     21  C         52.5980   38.3920   66.8560 C.2   187  ALA187      0.2617
     22  O         53.0440   37.3810   66.2510 O.2   187  ALA187     -0.2715
     23  CB        54.0570   39.2180   68.6990 C.3   187  ALA187      0.0334
     24  N         51.9980   39.4160   66.2330 N.am  188  SER188     -0.1936
     25  CA        51.8440   39.4010   64.7940 C.3   188  SER188      0.2055
     26  C         52.3820   40.6600   64.1190 C.2   188  SER188      0.2643
     27  O         52.4630   40.7070   62.9160 O.2   188  SER188     -0.2714
     28  CB        50.3720   39.1140   64.4280 C.3   188  SER188      0.2130
     29  OG        50.0550   37.7790   64.8890 O.3   188  SER188     -0.2179
     30  N         52.7410   41.6910   64.8840 N.am  189  ASN189     -0.1971
     31  CA        53.3010   42.8940   64.2830 C.3   189  ASN189      0.1688
     32  C         54.7860   42.5650   64.2430 C.2   189  ASN189      0.2292
     33  O         55.4180   42.4240   65.2800 O.2   189  ASN189     -0.2864
     34  CB        53.0270   44.1250   65.1560 C.3   189  ASN189      0.1181
     35  CG        53.7390   45.4150   64.6410 C.2   189  ASN189      0.2629
     36  OD1       54.5090   45.3850   63.6960 O.2   189  ASN189     -0.2716
     37  ND2       53.4530   46.5400   65.2950 N.am  189  ASN189     -0.0877
     38  N         61.7180   43.3140   70.6660 N.3   195  ARG195     -0.1245
     39  CA        60.9010   42.1530   71.0260 C.3   195  ARG195      0.1563
     40  C         61.4660   40.9060   70.3490 C.2   195  ARG195      0.2260
     41  O         61.6620   39.8620   70.9820 O.2   195  ARG195     -0.2867
     42  CB        59.4730   42.3570   70.4870 C.3   195  ARG195      0.0307
     43  CG        58.4640   41.3250   70.8690 C.3   195  ARG195      0.0489
     44  CD        57.1300   41.9980   71.1000 C.3   195  ARG195      0.2205
     45  NE        56.5230   42.3150   69.8290 N.pl3 195  ARG195     -0.0865
     46  CZ        55.4250   43.0440   69.6360 C.cat 195  ARG195      0.5346
     47  NH1       54.7590   43.5980   70.6620 N.pl3 195  ARG195      0.1354
     48  NH2       54.9600   43.1530   68.3900 N.pl3 195  ARG195      0.1354
     49  N         52.9510   31.5700   69.2700 N.3   211  GLY211     -0.1210
     50  CA        51.5860   31.2840   68.8660 C.3   211  GLY211      0.1956
     51  C         50.9270   32.3050   67.9340 C.2   211  GLY211      0.2612
     52  O         49.8010   32.0910   67.5450 O.2   211  GLY211     -0.2717
     53  N         51.6400   33.3910   67.6080 N.am  212  GLY212     -0.1956
     54  CA        51.1560   34.4140   66.7010 C.3   212  GLY212      0.1869
     55  C         51.9900   34.2980   65.4290 C.2   212  GLY212      0.2309
     56  O         52.7450   33.3710   65.3120 O.2   212  GLY212     -0.2863
     57  N         48.1990   30.2460   63.7170 N.3   221  ASN221     -0.1225
     58  CA        48.0160   31.2920   64.7370 C.3   221  ASN221      0.1785
     59  C         46.8530   31.0010   65.7250 C.2   221  ASN221      0.2597
     60  O         45.7190   30.7460   65.3050 O.2   221  ASN221     -0.2718
     61  CB        47.8700   32.6210   64.0080 C.3   221  ASN221      0.1169
     62  CG        49.0340   32.8460   63.0200 C.2   221  ASN221      0.2627
     63  OD1       50.2270   32.5460   63.3270 O.2   221  ASN221     -0.2716
     64  ND2       48.7110   33.3410   61.8490 N.am  221  ASN221     -0.0877
     65  N         47.1270   30.9990   67.0340 N.am  222  VAL222     -0.1966
     66  CA        46.0530   30.6430   67.9830 C.3   222  VAL222      0.1727
     67  C         44.9350   31.6560   68.0410 C.2   222  VAL222      0.2616
     68  O         45.1280   32.8700   67.8030 O.2   222  VAL222     -0.2715
     69  CB        46.5200   30.4490   69.4840 C.3   222  VAL222      0.0290
     70  CG1       47.1640   29.1500   69.6730 C.3   222  VAL222      0.0023
     71  CG2       47.4270   31.6260   69.9340 C.3   222  VAL222      0.0023
     72  N         43.7560   31.1300   68.3500 N.am  223  LYS223     -0.1977
     73  CA        42.5610   31.9280   68.4950 C.3   223  LYS223      0.1596
     74  C         42.3260   32.2800   69.9920 C.2   223  LYS223      0.2287
     75  O         42.1450   33.4500   70.3300 O.2   223  LYS223     -0.2864
     76  CB        41.3640   31.1830   67.8900 C.3   223  LYS223      0.0298
     77  CG        41.5400   30.9680   66.3610 C.3   223  LYS223      0.0038
     78  CD        41.6920   32.2910   65.6270 C.3   223  LYS223      0.0206
     79  CE        42.0020   32.0810   64.1530 C.3   223  LYS223      0.1093
     80  NZ        43.3860   31.4940   64.0180 N.3   223  LYS223     -0.1314
     81  N         43.9560   33.1320   73.0200 N.3   225  LYS225     -0.1245
     82  CA        45.2500   33.4700   73.6470 C.3   225  LYS225      0.1561
     83  C         45.2770   33.0900   75.1650 C.2   225  LYS225      0.2260
     84  O         46.3170   32.6740   75.7010 O.2   225  LYS225     -0.2867
     85  CB        45.5550   34.9590   73.4430 C.3   225  LYS225      0.0271
     86  CG        46.8540   35.4630   74.1260 C.3   225  LYS225      0.0035
     87  CD        47.0800   36.9670   73.9360 C.3   225  LYS225      0.0206
     88  CE        48.4240   37.4280   74.6200 C.3   225  LYS225      0.1093
     89  NZ        48.5370   38.9040   74.7190 N.3   225  LYS225     -0.1314
     90  N         55.5290   47.1050   71.6600 N.3   240  ASN240     -0.1240
     91  CA        56.3220   47.2110   70.4280 C.3   240  ASN240      0.1653
     92  C         57.3090   48.3690   70.3880 C.2   240  ASN240      0.2266
     93  O         58.1760   48.4130   69.5150 O.2   240  ASN240     -0.2867
     94  CB        55.4510   47.1890   69.1980 C.3   240  ASN240      0.1155
     95  CG        54.7450   48.4590   68.9870 C.2   240  ASN240      0.2627
     96  OD1       55.1150   49.2350   68.1120 O.2   240  ASN240     -0.2716
     97  ND2       53.7370   48.7200   69.8030 N.am  240  ASN240     -0.0877
     98  N         53.6540   53.7030   78.9870 N.3   246  TYR246     -0.1241
     99  CA        52.9990   52.9570   77.9240 C.3   246  TYR246      0.1605
    100  C         52.8790   51.4530   78.2570 C.2   246  TYR246      0.2264
    101  O         53.7260   50.6110   77.9190 O.2   246  TYR246     -0.2867
    102  CB        53.7850   53.2050   76.6330 C.3   246  TYR246      0.0534
    103  CG        53.2240   52.4760   75.4720 C.ar  246  TYR246     -0.0201
    104  CD1       51.8770   52.6090   75.1330 C.ar  246  TYR246     -0.0009
    105  CD2       54.0190   51.6610   74.6870 C.ar  246  TYR246     -0.0009
    106  CE1       51.3550   51.9550   74.0370 C.ar  246  TYR246      0.0417
    107  CE2       53.4920   51.0210   73.5900 C.ar  246  TYR246      0.0417
    108  CZ        52.1670   51.1800   73.2820 C.ar  246  TYR246      0.1957
    109  OH        51.6230   50.5330   72.1890 O.3   246  TYR246     -0.2866
    110  N         47.5500   45.9770   76.9820 N.3   249  GLU249     -0.1231
    111  CA        46.8300   44.8150   77.3980 C.3   249  GLU249      0.1699
    112  C         47.7550   43.6190   77.6650 C.2   249  GLU249      0.2592
    113  O         47.3630   42.6780   78.3860 O.2   249  GLU249     -0.2718
    114  CB        45.8460   44.3810   76.3360 C.3   249  GLU249      0.0402
    115  CG        46.5100   43.6000   75.1590 C.3   249  GLU249      0.1161
    116  CD        47.3130   44.5210   74.1840 C.2   249  GLU249      0.3649
    117  OE1       47.1210   45.7320   74.2560 O.co2 249  GLU249     -0.2457
    118  OE2       48.0870   44.0360   73.3360 O.co2 249  GLU249     -0.2457
    119  N         48.9510   43.6530   77.0840 N.am  250  LYS250     -0.1980
    120  CA        49.8500   42.5020   77.1880 C.3   250  LYS250      0.1596
    121  C         50.1550   41.9210   78.5860 C.2   250  LYS250      0.2287
    122  O         50.0170   40.7080   78.8030 O.2   250  LYS250     -0.2864
    123  CB        51.1370   42.8260   76.4330 C.3   250  LYS250      0.0298
    124  CG        50.8950   42.9730   74.9060 C.3   250  LYS250      0.0038
    125  CD        52.0370   43.7640   74.1890 C.3   250  LYS250      0.0206
    126  CE        51.6530   44.1630   72.7760 C.3   250  LYS250      0.1093
    127  NZ        50.5310   45.1780   72.6110 N.3   250  LYS250     -0.1314
    128  N         47.1280   40.1100   79.9860 N.3   253  ASP253     -0.1239
    129  CA        46.8400   38.7730   79.5080 C.3   253  ASP253      0.1674
    130  C         47.6780   37.7210   80.2540 C.2   253  ASP253      0.2266
    131  O         47.1600   36.6370   80.5840 O.2   253  ASP253     -0.2867
    132  CB        47.0890   38.6490   78.0050 C.3   253  ASP253      0.1410
    133  CG        46.0950   39.4590   77.1540 C.2   253  ASP253      0.3668
    134  OD1       44.9550   39.7070   77.5530 O.co2 253  ASP253     -0.2456
    135  OD2       46.4650   39.8190   76.0210 O.co2 253  ASP253     -0.2456
@<TRIPOS>BOND
     1    64    62   am
     2    27    26    2
     3    62    63    2
     4    62    61    1
     5    36    35    2
     6    57    58    1
     7    61    58    1
     8    80    79    1
     9    26    25    1
    10    26    30   am
    11    79    78    1
    12    32    31    1
    13    32    33    2
    14    31    30    1
    15    31    34    1
    16    28    25    1
    17    28    29    1
    18    35    34    1
    19    35    37   am
    20    58    59    1
    21    25    24    1
    22    60    59    2
    23    56    55    2
    24    55    54    1
    25    78    77    1
    26    59    65   am
    27    24    21   am
    28    22    21    2
    29    77    76    1
    30    54    53    1
    31    21    20    1
    32    65    66    1
    33    52    51    2
    34    53    51   am
    35    68    67    2
    36    76    73    1
    37    51    50    1
    38    66    67    1
    39    66    69    1
    40    67    72   am
    41    96    95    2
    42    72    73    1
    43    20    23    1
    44    20    19    1
    45    48    46    1
    46    73    74    1
    47    50    49    1
    48    95    94    1
    49    95    97   am
    50    19    14   am
    51    94    91    1
    52    69    70    1
    53    69    71    1
    54    93    92    2
    55    46    45    2
    56    46    47    1
    57    45    44    1
    58    74    75    2
    59    14    13    1
    60    14    15    2
    61    40    41    2
    62    40    39    1
    63    92    91    1
    64    91    90    1
    65    42    43    1
    66    42    39    1
    67    17    16    1
    68    38    39    1
    69    13    16    1
    70    13    12    1
    71    43    44    1
    72    16    18    1
    73   109   108    1
    74   127   126    1
    75   126   125    1
    76    81    82    1
    77   108   107   ar
    78   108   106   ar
    79   118   116   ar
    80    85    82    1
    81    85    86    1
    82   107   105   ar
    83    82    83    1
    84    87    86    1
    85    87    88    1
    86   106   104   ar
    87   116   117   ar
    88   116   115    1
    89   125   124    1
    90    88    89    1
    91   105   103   ar
    92    10     9    1
    93   124   123    1
    94    11     9    1
    95   104   103   ar
    96   115   114    1
    97    83    84    2
    98   103   102    1
    99     9     8    2
   100   135   133   ar
   101   114   111    1
   102   123   120    1
   103     8     7    1
   104   102    99    1
   105   110   111    1
   106   119   120    1
   107   119   112   am
   108   133   134   ar
   109   133   132    1
   110     7     6    1
   111   120   121    1
   112   111   112    1
   113   112   113    2
   114   101   100    2
   115    99   100    1
   116    99    98    1
   117   132   129    1
   118     6     5    1
   119   121   122    2
   120     5     2    1
   121     2     1    1
   122     2     3    1
   123   129   128    1
   124   129   130    1
   125     4     3    2
   126   130   131    2
