@<TRIPOS>MOLECULE
tmp/2nzyC00.pdb
 94 88 0 0 0
SMALL
GASTEIGER

@<TRIPOS>ATOM
      1  N         45.2560   54.2890   70.9950 N.3    94  GLY94      -0.1210
      2  CA        45.7590   53.1440   71.7190 C.3    94  GLY94       0.1956
      3  C         47.2500   52.9980   71.4410 C.2    94  GLY94       0.2611
      4  O         47.8420   52.1370   72.0110 O.2    94  GLY94      -0.2717
      5  N         47.7920   53.8360   70.5510 N.am   95  GLU95      -0.1979
      6  CA        49.2060   53.8590   70.1730 C.3    95  GLU95       0.1602
      7  C         50.0710   54.5720   71.2230 C.2    95  GLU95       0.2287
      8  O         49.5730   55.2960   72.1280 O.2    95  GLU95      -0.2864
      9  CB        49.4390   54.6700   68.9020 C.3    95  GLU95       0.0415
     10  CG        48.4860   54.4660   67.7160 C.3    95  GLU95       0.1163
     11  CD        48.7790   53.1920   66.9120 C.2    95  GLU95       0.3649
     12  OE1       49.9930   52.8920   66.6420 O.co2  95  GLU95      -0.2457
     13  OE2       47.7870   52.5110   66.5410 O.co2  95  GLU95      -0.2457
     14  N         45.9130   51.4310   78.3740 N.3   124  LEU124     -0.1245
     15  CA        45.1280   50.3850   77.7170 C.3   124  LEU124      0.1561
     16  C         44.9600   49.1510   78.6340 C.2   124  LEU124      0.2260
     17  O         44.0330   48.3710   78.4360 O.2   124  LEU124     -0.2867
     18  CB        45.8240   49.8630   76.4650 C.3   124  LEU124      0.0270
     19  CG        45.2640   50.3330   75.1260 C.3   124  LEU124      0.0019
     20  CD1       46.0030   49.4600   74.0470 C.3   124  LEU124      0.0001
     21  CD2       43.6880   50.1130   75.0620 C.3   124  LEU124      0.0001
     22  N         52.7410   41.6910   64.8840 N.3   189  ASN189     -0.1240
     23  CA        53.3010   42.8940   64.2830 C.3   189  ASN189      0.1653
     24  C         54.7860   42.5650   64.2430 C.2   189  ASN189      0.2266
     25  O         55.4180   42.4240   65.2800 O.2   189  ASN189     -0.2867
     26  CB        53.0270   44.1250   65.1560 C.3   189  ASN189      0.1155
     27  CG        53.7390   45.4150   64.6410 C.2   189  ASN189      0.2627
     28  OD1       54.5090   45.3850   63.6960 O.2   189  ASN189     -0.2716
     29  ND2       53.4530   46.5400   65.2950 N.am  189  ASN189     -0.0877
     30  N         61.7180   43.3140   70.6660 N.3   195  ARG195     -0.1245
     31  CA        60.9010   42.1530   71.0260 C.3   195  ARG195      0.1563
     32  C         61.4660   40.9060   70.3490 C.2   195  ARG195      0.2260
     33  O         61.6620   39.8620   70.9820 O.2   195  ARG195     -0.2867
     34  CB        59.4730   42.3570   70.4870 C.3   195  ARG195      0.0307
     35  CG        58.4640   41.3250   70.8690 C.3   195  ARG195      0.0489
     36  CD        57.1300   41.9980   71.1000 C.3   195  ARG195      0.2205
     37  NE        56.5230   42.3150   69.8290 N.pl3 195  ARG195     -0.0865
     38  CZ        55.4250   43.0440   69.6360 C.cat 195  ARG195      0.5346
     39  NH1       54.7590   43.5980   70.6620 N.pl3 195  ARG195      0.1354
     40  NH2       54.9600   43.1530   68.3900 N.pl3 195  ARG195      0.1354
     41  N         56.1310   45.3090   74.7060 N.3   239  GLU239     -0.1231
     42  CA        55.4290   46.4000   74.0120 C.3   239  GLU239      0.1699
     43  C         56.1560   46.5460   72.6930 C.2   239  GLU239      0.2592
     44  O         57.3120   46.1700   72.5950 O.2   239  GLU239     -0.2718
     45  CB        55.5350   47.7060   74.8170 C.3   239  GLU239      0.0402
     46  CG        54.9850   47.5780   76.2970 C.3   239  GLU239      0.1161
     47  CD        53.4560   47.3400   76.4400 C.2   239  GLU239      0.3649
     48  OE1       52.7690   47.1400   75.4000 O.co2 239  GLU239     -0.2457
     49  OE2       52.9350   47.3450   77.6150 O.co2 239  GLU239     -0.2457
     50  N         55.5290   47.1050   71.6600 N.am  240  ASN240     -0.1974
     51  CA        56.3220   47.2110   70.4280 C.3   240  ASN240      0.1688
     52  C         57.3090   48.3690   70.3880 C.2   240  ASN240      0.2292
     53  O         58.1760   48.4130   69.5150 O.2   240  ASN240     -0.2864
     54  CB        55.4510   47.1890   69.1980 C.3   240  ASN240      0.1181
     55  CG        54.7450   48.4590   68.9870 C.2   240  ASN240      0.2629
     56  OD1       55.1150   49.2350   68.1120 O.2   240  ASN240     -0.2716
     57  ND2       53.7370   48.7200   69.8030 N.am  240  ASN240     -0.0877
     58  N         53.6540   53.7030   78.9870 N.3   246  TYR246     -0.1241
     59  CA        52.9990   52.9570   77.9240 C.3   246  TYR246      0.1605
     60  C         52.8790   51.4530   78.2570 C.2   246  TYR246      0.2264
     61  O         53.7260   50.6110   77.9190 O.2   246  TYR246     -0.2867
     62  CB        53.7850   53.2050   76.6330 C.3   246  TYR246      0.0534
     63  CG        53.2240   52.4760   75.4720 C.ar  246  TYR246     -0.0201
     64  CD1       51.8770   52.6090   75.1330 C.ar  246  TYR246     -0.0009
     65  CD2       54.0190   51.6610   74.6870 C.ar  246  TYR246     -0.0009
     66  CE1       51.3550   51.9550   74.0370 C.ar  246  TYR246      0.0417
     67  CE2       53.4920   51.0210   73.5900 C.ar  246  TYR246      0.0417
     68  CZ        52.1670   51.1800   73.2820 C.ar  246  TYR246      0.1957
     69  OH        51.6230   50.5330   72.1890 O.3   246  TYR246     -0.2866
     70  N         50.3020   48.2990   77.8420 N.3   248  THR248     -0.1203
     71  CA        49.0770   47.8860   77.1650 C.3   248  THR248      0.1994
     72  C         48.3980   46.6450   77.7780 C.2   248  THR248      0.2618
     73  O         48.6370   46.3250   78.9430 O.2   248  THR248     -0.2717
     74  CB        49.3330   47.6220   75.7040 C.3   248  THR248      0.1784
     75  OG1       50.1690   46.4900   75.5620 O.3   248  THR248     -0.2211
     76  CG2       50.0850   48.8400   75.0340 C.3   248  THR248      0.0376
     77  N         47.5500   45.9770   76.9820 N.am  249  GLU249     -0.1965
     78  CA        46.8300   44.8150   77.3980 C.3   249  GLU249      0.1733
     79  C         47.7550   43.6190   77.6650 C.2   249  GLU249      0.2616
     80  O         47.3630   42.6780   78.3860 O.2   249  GLU249     -0.2715
     81  CB        45.8460   44.3810   76.3360 C.3   249  GLU249      0.0429
     82  CG        46.5100   43.6000   75.1590 C.3   249  GLU249      0.1163
     83  CD        47.3130   44.5210   74.1840 C.2   249  GLU249      0.3649
     84  OE1       47.1210   45.7320   74.2560 O.co2 249  GLU249     -0.2457
     85  OE2       48.0870   44.0360   73.3360 O.co2 249  GLU249     -0.2457
     86  N         48.9510   43.6530   77.0840 N.am  250  LYS250     -0.1977
     87  CA        49.8500   42.5020   77.1880 C.3   250  LYS250      0.1596
     88  C         50.1550   41.9210   78.5860 C.2   250  LYS250      0.2287
     89  O         50.0170   40.7080   78.8030 O.2   250  LYS250     -0.2864
     90  CB        51.1370   42.8260   76.4330 C.3   250  LYS250      0.0298
     91  CG        50.8950   42.9730   74.9060 C.3   250  LYS250      0.0038
     92  CD        52.0370   43.7640   74.1890 C.3   250  LYS250      0.0206
     93  CE        51.6530   44.1630   72.7760 C.3   250  LYS250      0.1093
     94  NZ        50.5310   45.1780   72.6110 N.3   250  LYS250     -0.1314
@<TRIPOS>BOND
     1    28    27    2
     2    24    23    1
     3    24    25    2
     4    23    22    1
     5    23    26    1
     6    27    26    1
     7    27    29   am
     8    13    11   ar
     9    12    11   ar
    10    11    10    1
    11    10     9    1
    12    56    55    2
    13    40    38    1
    14     9     6    1
    15    55    54    1
    16    55    57   am
    17    54    51    1
    18    53    52    2
    19    38    37    2
    20    38    39    1
    21    37    36    1
    22     6     5    1
    23     6     7    1
    24    32    33    2
    25    32    31    1
    26    52    51    1
    27    51    50    1
    28    34    35    1
    29    34    31    1
    30     5     3   am
    31    30    31    1
    32    35    36    1
    33     1     2    1
    34     7     8    2
    35     3     2    1
    36     3     4    2
    37    50    43   am
    38    69    68    1
    39    44    43    2
    40    94    93    1
    41    43    42    1
    42    93    92    1
    43    68    67   ar
    44    68    66   ar
    45    85    83   ar
    46    67    65   ar
    47    42    41    1
    48    42    45    1
    49    66    64   ar
    50    20    19    1
    51    83    84   ar
    52    83    82    1
    53    92    91    1
    54    65    63   ar
    55    45    46    1
    56    91    90    1
    57    76    74    1
    58    21    19    1
    59    19    18    1
    60    64    63   ar
    61    82    81    1
    62    48    47   ar
    63    63    62    1
    64    75    74    1
    65    74    71    1
    66    46    47    1
    67    81    78    1
    68    90    87    1
    69    47    49   ar
    70    18    15    1
    71    62    59    1
    72    77    78    1
    73    77    72   am
    74    86    87    1
    75    86    79   am
    76    71    72    1
    77    71    70    1
    78    87    88    1
    79    78    79    1
    80    79    80    2
    81    15    14    1
    82    15    16    1
    83    72    73    2
    84    61    60    2
    85    59    60    1
    86    59    58    1
    87    17    16    2
    88    88    89    2
