@<TRIPOS>MOLECULE
tmp/2o01L05.pdb
 124 124 0 0 0
SMALL
GASTEIGER

@<TRIPOS>ATOM
      1  N         98.3060  -15.5610    0.0530 N.3    58  PHE58      -0.1227
      2  CA        98.9060  -14.2210   -0.2590 C.3    58  PHE58       0.1736
      3  C         98.0700  -13.3130   -1.1650 C.2    58  PHE58       0.2595
      4  O         98.1820  -12.0860   -1.1090 O.2    58  PHE58      -0.2718
      5  CB       100.3490  -14.3380   -0.8090 C.3    58  PHE58       0.0547
      6  CG       100.4810  -15.1080   -2.1230 C.ar   58  PHE58      -0.0202
      7  CD1      100.7340  -14.4200   -3.3300 C.ar   58  PHE58      -0.0042
      8  CD2      100.4360  -16.5220   -2.1380 C.ar   58  PHE58      -0.0042
      9  CE1      100.9050  -15.1230   -4.5400 C.ar   58  PHE58      -0.0003
     10  CE2      100.6020  -17.2290   -3.3290 C.ar   58  PHE58      -0.0003
     11  CZ       100.8360  -16.5300   -4.5430 C.ar   58  PHE58      -0.0000
     12  N         97.2290  -13.9460   -1.9780 N.am   59  LEU59      -0.1980
     13  CA        96.2060  -13.2820   -2.7740 C.3    59  LEU59       0.1596
     14  C         95.3820  -12.2460   -2.0050 C.2    59  LEU59       0.2287
     15  O         94.6730  -11.4560   -2.6150 O.2    59  LEU59      -0.2864
     16  CB        95.2910  -14.3610   -3.3580 C.3    59  LEU59       0.0297
     17  CG        94.5510  -14.2370   -4.6910 C.3    59  LEU59       0.0022
     18  CD1       94.0450  -15.6200   -5.0170 C.3    59  LEU59       0.0001
     19  CD2       93.3860  -13.2570   -4.6510 C.3    59  LEU59       0.0001
     20  N         96.8330  -10.3620    0.9010 N.3    61  VAL61      -0.1231
     21  CA        97.7610   -9.2620    1.2760 C.3    61  VAL61       0.1692
     22  C         97.2040   -7.8890    0.8930 C.2    61  VAL61       0.2593
     23  O         97.6880   -6.8240    1.3450 O.2    61  VAL61      -0.2718
     24  CB        99.1980   -9.4140    0.6310 C.3    61  VAL61       0.0266
     25  CG1       99.1890   -9.3100   -0.9260 C.3    61  VAL61       0.0020
     26  CG2      100.1630   -8.3910    1.2320 C.3    61  VAL61       0.0020
     27  N         96.1970   -7.9310    0.0300 N.am   62  GLY62      -0.1943
     28  CA        95.5600   -6.7510   -0.4240 C.3    62  GLY62       0.1998
     29  C         94.5720   -6.1580    0.5590 C.2    62  GLY62       0.2480
     30  O         94.9770   -5.4010    1.4540 O.2    62  GLY62      -0.2729
     31  N         93.2630   -6.4620    0.3710 N.am   63  PRO63      -0.2726
     32  CA        92.2240   -5.9000    1.2240 C.3    63  PRO63       0.1402
     33  C         92.4330   -6.1940    2.7440 C.2    63  PRO63       0.2269
     34  O         91.4810   -6.1000    3.5620 O.2    63  PRO63      -0.2865
     35  CB        90.9250   -6.5310    0.6600 C.3    63  PRO63       0.0296
     36  CG        91.3530   -7.7710   -0.0640 C.3    63  PRO63       0.0237
     37  CD        92.6700   -7.3460   -0.6670 C.3    63  PRO63       0.0939
     38  N         94.9080   -4.3180    4.4740 N.3    65  VAL65      -0.1231
     39  CA        95.8160   -3.1630    4.8610 C.3    65  VAL65       0.1692
     40  C         95.2560   -1.7150    4.6100 C.2    65  VAL65       0.2592
     41  O         94.7180   -1.0860    5.5360 O.2    65  VAL65      -0.2718
     42  CB        97.2710   -3.2870    4.2470 C.3    65  VAL65       0.0266
     43  CG1       98.2170   -2.2810    4.8640 C.3    65  VAL65       0.0020
     44  CG2       97.8410   -4.7020    4.3900 C.3    65  VAL65       0.0020
     45  N         95.3910   -1.1960    3.3750 N.am   66  LYS66      -0.1966
     46  CA        94.7470    0.0890    3.0140 C.3    66  LYS66       0.1728
     47  C         93.2360   -0.0310    3.1230 C.2    66  LYS66       0.2616
     48  O         92.5330    0.9220    3.4710 O.2    66  LYS66      -0.2715
     49  CB        95.1350    0.6380    1.6180 C.3    66  LYS66       0.0311
     50  CG        95.4490    2.1980    1.6410 C.3    66  LYS66       0.0038
     51  CD        94.5810    3.0660    0.7010 C.3    66  LYS66       0.0206
     52  CE        95.2880    3.4290   -0.6300 C.3    66  LYS66       0.1093
     53  NZ        96.5750    4.1960   -0.4710 N.3    66  LYS66      -0.1314
     54  N         92.7360   -1.2160    2.8100 N.am   67  ALA67      -0.1977
     55  CA        91.3400   -1.5080    3.0530 C.3    67  ALA67       0.1597
     56  C         91.1630   -1.9040    4.5080 C.2    67  ALA67       0.2287
     57  O         92.0630   -2.5000    5.1080 O.2    67  ALA67      -0.2864
     58  CB        90.8500   -2.6090    2.1140 C.3    67  ALA67       0.0319
     59  N        104.3870  -16.7540    3.5280 N.3   149  TRP149     -0.1227
     60  CA       105.5350  -16.6110    2.6450 C.3   149  TRP149      0.1737
     61  C        105.6060  -15.1740    2.0600 C.2   149  TRP149      0.2595
     62  O        106.6990  -14.6620    1.7340 O.2   149  TRP149     -0.2718
     63  CB       105.6570  -17.8290    1.6860 C.3   149  TRP149      0.0564
     64  CG       105.7800  -17.5910    0.2120 C.ar  149  TRP149      0.0003
     65  CD1      106.7280  -16.8520   -0.4340 C.ar  149  TRP149      0.0946
     66  CD2      104.9410  -18.1480   -0.8130 C.ar  149  TRP149      0.0152
     67  NE1      106.5000  -16.8680   -1.7920 N.ar  149  TRP149     -0.2442
     68  CE2      105.4170  -17.6600   -2.0550 C.ar  149  TRP149      0.0810
     69  CE3      103.8150  -18.9890   -0.8010 C.ar  149  TRP149      0.0012
     70  CZ2      104.8120  -17.9820   -3.2760 C.ar  149  TRP149      0.0191
     71  CZ3      103.2040  -19.2980   -2.0170 C.ar  149  TRP149      0.0001
     72  CH2      103.7140  -18.8000   -3.2390 C.ar  149  TRP149      0.0015
     73  N        104.4490  -14.5040    2.0400 N.am  150  ALA150     -0.1980
     74  CA       104.3700  -13.0830    1.6740 C.3   150  ALA150      0.1597
     75  C        104.8760  -12.1640    2.7730 C.2   150  ALA150      0.2287
     76  O        105.2990  -11.0670    2.4630 O.2   150  ALA150     -0.2864
     77  CB       102.9580  -12.6900    1.2530 C.3   150  ALA150      0.0319
     78  N        110.3410   -9.5380    1.5880 N.3   154  MET154     -0.1230
     79  CA       109.9910   -8.3070    0.8700 C.3   154  MET154      0.1702
     80  C        109.0540   -7.3710    1.6710 C.2   154  MET154      0.2592
     81  O        108.3170   -7.8440    2.5410 O.2   154  MET154     -0.2718
     82  CB       109.3680   -8.6530   -0.5150 C.3   154  MET154      0.0401
     83  CG       110.3290   -9.3260   -1.5580 C.3   154  MET154      0.0596
     84  SD       109.5180  -10.4240   -2.7860 S.3   154  MET154     -0.1393
     85  CE       110.8070  -10.7350   -4.0110 C.3   154  MET154      0.0692
     86  N        109.1440   -6.0510    1.4210 N.am  155  TYR155     -0.1976
     87  CA       107.9500   -5.1320    1.4230 C.3   155  TYR155      0.1639
     88  C        108.0080   -3.6460    0.9510 C.2   155  TYR155      0.2290
     89  O        107.0240   -2.9030    1.0800 O.2   155  TYR155     -0.2864
     90  CB       106.9470   -5.3780    2.5690 C.3   155  TYR155      0.0560
     91  CG       105.9920   -6.4590    2.1320 C.ar  155  TYR155     -0.0198
     92  CD1      105.8390   -6.7350    0.7720 C.ar  155  TYR155     -0.0009
     93  CD2      105.2750   -7.2170    3.0410 C.ar  155  TYR155     -0.0009
     94  CE1      105.0130   -7.7210    0.3200 C.ar  155  TYR155      0.0417
     95  CE2      104.4180   -8.2220    2.5970 C.ar  155  TYR155      0.0417
     96  CZ       104.2990   -8.4680    1.2200 C.ar  155  TYR155      0.1957
     97  OH       103.4740   -9.4630    0.7150 O.3   155  TYR155     -0.2866
     98  N        108.0820   -2.8400   -2.4620 N.3   157  LEU157     -0.1245
     99  CA       107.8500   -3.5320   -3.7460 C.3   157  LEU157      0.1561
    100  C        109.0150   -3.7290   -4.7190 C.2   157  LEU157      0.2260
    101  O        110.1480   -3.4410   -4.3830 O.2   157  LEU157     -0.2867
    102  CB       106.6290   -2.9360   -4.4470 C.3   157  LEU157      0.0270
    103  CG       105.2840   -3.3870   -3.8700 C.3   157  LEU157      0.0019
    104  CD1      104.5600   -2.2450   -3.1580 C.3   157  LEU157      0.0001
    105  CD2      104.4080   -4.0240   -4.9560 C.3   157  LEU157      0.0001
    106  N        107.9220   -8.1140   -9.7310 N.3   160  PRO160     -0.2102
    107  CA       106.9810   -9.2550   -9.6880 C.3   160  PRO160      0.1504
    108  C        105.8860   -9.4120  -10.7620 C.2   160  PRO160      0.2575
    109  O        105.8520  -10.4810  -11.3880 O.2   160  PRO160     -0.2718
    110  CB       106.3670   -9.1200   -8.2860 C.3   160  PRO160      0.0282
    111  CG       107.4930   -8.4640   -7.4310 C.3   160  PRO160      0.0208
    112  CD       108.6100   -8.0410   -8.4280 C.3   160  PRO160      0.0893
    113  N        104.9940   -8.4210  -10.9490 N.am  161  TYR161     -0.1977
    114  CA       104.0450   -8.4430  -12.1080 C.3   161  TYR161      0.1639
    115  C        104.1980   -7.4150  -13.2800 C.2   161  TYR161      0.2290
    116  O        103.6030   -6.3250  -13.2890 O.2   161  TYR161     -0.2864
    117  CB       102.5750   -8.6370  -11.6920 C.3   161  TYR161      0.0560
    118  CG       102.0170   -7.8220  -10.5410 C.ar  161  TYR161     -0.0198
    119  CD1      102.0760   -8.3030   -9.2620 C.ar  161  TYR161     -0.0009
    120  CD2      101.3340   -6.6070  -10.7510 C.ar  161  TYR161     -0.0009
    121  CE1      101.5210   -7.5950   -8.1920 C.ar  161  TYR161      0.0417
    122  CE2      100.7710   -5.8840   -9.6750 C.ar  161  TYR161      0.0417
    123  CZ       100.8750   -6.4010   -8.3880 C.ar  161  TYR161      0.1957
    124  OH       100.3580   -5.7720   -7.2760 O.3   161  TYR161     -0.2866
@<TRIPOS>BOND
     1   116   115    2
     2   115   114    1
     3   114   117    1
     4   114   113    1
     5   117   118    1
     6   109   108    2
     7   113   108   am
     8   108   107    1
     9   120   118   ar
    10   120   122   ar
    11   118   119   ar
    12   106   107    1
    13   106   112    1
    14   107   110    1
    15   122   123   ar
    16   119   121   ar
    17   112   111    1
    18   123   121   ar
    19   123   124    1
    20   110   111    1
    21    18    17    1
    22   105   103    1
    23   100   101    2
    24   100    99    1
    25    17    19    1
    26    17    16    1
    27    11     9   ar
    28    11    10   ar
    29     9     7   ar
    30   102   103    1
    31   102    99    1
    32    85    84    1
    33   103   104    1
    34    99    98    1
    35    16    13    1
    36     7     6   ar
    37    10     8   ar
    38    70    72   ar
    39    70    68   ar
    40    72    71   ar
    41    84    83    1
    42    13    14    1
    43    13    12    1
    44    15    14    2
    45     8     6   ar
    46     6     5    1
    47    68    67   ar
    48    68    66   ar
    49    71    69   ar
    50    12     3   am
    51    67    65   ar
    52    83    82    1
    53     3     4    2
    54     3     2    1
    55    25    24    1
    56    66    69   ar
    57    66    64   ar
    58     5     2    1
    59    37    36    1
    60    37    31    1
    61    52    53    1
    62    52    51    1
    63    82    79    1
    64    65    64   ar
    65    28    27    1
    66    28    29    1
    67     2     1    1
    68    36    35    1
    69    27    22   am
    70    64    63    1
    71    94    92   ar
    72    94    96   ar
    73    31    29   am
    74    31    32    1
    75    29    30    2
    76    24    26    1
    77    24    21    1
    78    35    32    1
    79    51    50    1
    80    97    96    1
    81    92    91   ar
    82    79    78    1
    83    79    80    1
    84    22    21    1
    85    22    23    2
    86    20    21    1
    87    88    89    2
    88    88    87    1
    89    96    95   ar
    90    32    33    1
    91    77    74    1
    92    86    87    1
    93    86    80   am
    94    87    90    1
    95    49    50    1
    96    49    46    1
    97    80    81    2
    98    74    73    1
    99    74    75    1
   100    63    60    1
   101    62    61    2
   102    73    61   am
   103    61    60    1
   104    58    55    1
   105    91    90    1
   106    91    93   ar
   107    76    75    2
   108    95    93   ar
   109    60    59    1
   110    33    34    2
   111    54    55    1
   112    54    47   am
   113    46    47    1
   114    46    45    1
   115    55    56    1
   116    47    48    2
   117    45    40   am
   118    42    44    1
   119    42    39    1
   120    42    43    1
   121    38    39    1
   122    56    57    2
   123    40    39    1
   124    40    41    2
