@<TRIPOS>MOLECULE
tmp/2o01B36.pdb
 87 79 0 0 0
SMALL
GASTEIGER

@<TRIPOS>ATOM
      1  N         21.6250  -14.2130   32.1760 N.3   310  PRO310     -0.2116
      2  CA        20.7220  -13.3100   31.4370 C.3   310  PRO310      0.1372
      3  C         20.3750  -13.7980   30.0210 C.2   310  PRO310      0.2244
      4  O         21.1700  -13.6220   29.0850 O.2   310  PRO310     -0.2868
      5  CB        21.4980  -11.9870   31.4010 C.3   310  PRO310      0.0268
      6  CG        22.9380  -12.3970   31.6220 C.3   310  PRO310      0.0207
      7  CD        22.8660  -13.5270   32.5780 C.3   310  PRO310      0.0892
      8  N         41.9740  -16.8590   25.5650 N.3   335  LEU335     -0.1245
      9  CA        41.8310  -15.7690   26.5760 C.3   335  LEU335      0.1561
     10  C         42.9850  -15.5770   27.5970 C.2   335  LEU335      0.2260
     11  O         42.8610  -14.7810   28.5480 O.2   335  LEU335     -0.2867
     12  CB        40.5250  -15.8860   27.3820 C.3   335  LEU335      0.0270
     13  CG        39.1000  -16.0870   26.8720 C.3   335  LEU335      0.0019
     14  CD1       38.9630  -15.8510   25.3620 C.3   335  LEU335      0.0001
     15  CD2       38.5890  -17.4740   27.3030 C.3   335  LEU335      0.0001
     16  N         44.2330  -13.0770   25.4240 N.3   338  ALA338     -0.1231
     17  CA        43.0040  -12.2960   25.2810 C.3   338  ALA338      0.1694
     18  C         42.6790  -11.2600   26.3820 C.2   338  ALA338      0.2592
     19  O         42.0450  -10.2230   26.1050 O.2   338  ALA338     -0.2718
     20  CB        41.8310  -13.2220   25.1180 C.3   338  ALA338      0.0304
     21  N         43.0730  -11.5480   27.6160 N.am  339  SER339     -0.1952
     22  CA        42.5630  -10.7920   28.7410 C.3   339  SER339      0.1924
     23  C         43.7130  -10.3130   29.5730 C.2   339  SER339      0.2314
     24  O         43.5900   -9.3220   30.2840 O.2   339  SER339     -0.2863
     25  CB        41.6250  -11.6520   29.5800 C.3   339  SER339      0.2116
     26  OG        40.7700  -12.4390   28.7710 O.3   339  SER339     -0.2180
     27  N         43.8290   -6.7490   27.6670 N.3   342  VAL342     -0.1245
     28  CA        43.5380   -5.5900   28.5190 C.3   342  VAL342      0.1561
     29  C         44.6180   -5.2270   29.5640 C.2   342  VAL342      0.2260
     30  O         45.1920   -4.1430   29.4800 O.2   342  VAL342     -0.2867
     31  CB        42.1080   -5.6670   29.1380 C.3   342  VAL342      0.0252
     32  CG1       41.5810   -4.2620   29.5660 C.3   342  VAL342      0.0019
     33  CG2       41.1620   -6.3070   28.1130 C.3   342  VAL342      0.0019
     34  N         45.3420  -12.7250   19.1670 N.3   385  ALA385     -0.1231
     35  CA        44.7370  -13.0760   20.4300 C.3   385  ALA385      0.1694
     36  C         43.3310  -13.4620   20.0780 C.2   385  ALA385      0.2592
     37  O         42.6160  -14.1540   20.8430 O.2   385  ALA385     -0.2718
     38  CB        44.7420  -11.8790   21.3830 C.3   385  ALA385      0.0304
     39  N         42.9360  -12.9850   18.9100 N.am  386  PHE386     -0.1976
     40  CA        41.7840  -13.5220   18.3230 C.3   386  PHE386      0.1639
     41  C         42.2460  -14.6200   17.3560 C.2   386  PHE386      0.2290
     42  O         41.4370  -15.4900   16.9840 O.2   386  PHE386     -0.2864
     43  CB        41.0410  -12.4700   17.5520 C.3   386  PHE386      0.0560
     44  CG        40.4960  -11.3560   18.3600 C.ar  386  PHE386     -0.0200
     45  CD1       41.3280  -10.3860   18.8820 C.ar  386  PHE386     -0.0042
     46  CD2       39.0990  -11.2040   18.4780 C.ar  386  PHE386     -0.0042
     47  CE1       40.7970   -9.3110   19.5590 C.ar  386  PHE386     -0.0003
     48  CE2       38.5380  -10.1320   19.1650 C.ar  386  PHE386     -0.0003
     49  CZ        39.3980   -9.1860   19.7170 C.ar  386  PHE386     -0.0000
     50  N         24.8140  -19.8320   21.9280 N.3   406  VAL406     -0.1245
     51  CA        25.4520  -18.5110   21.6050 C.3   406  VAL406      0.1561
     52  C         26.5140  -18.4640   20.5080 C.2   406  VAL406      0.2260
     53  O         26.3700  -17.7100   19.5600 O.2   406  VAL406     -0.2867
     54  CB        25.9340  -17.6980   22.8650 C.3   406  VAL406      0.0252
     55  CG1       24.7560  -17.1310   23.6120 C.3   406  VAL406      0.0019
     56  CG2       26.8880  -18.5200   23.7970 C.3   406  VAL406      0.0019
     57  N         25.8900  -16.7680   17.5770 N.3   410  MET410     -0.1245
     58  CA        26.8470  -15.6930   17.2800 C.3   410  MET410      0.1570
     59  C         27.1420  -15.7560   15.8070 C.2   410  MET410      0.2261
     60  O         26.9180  -14.7950   15.0680 O.2   410  MET410     -0.2867
     61  CB        28.1560  -15.9670   18.0350 C.3   410  MET410      0.0387
     62  CG        28.9900  -14.7620   18.4030 C.3   410  MET410      0.0595
     63  SD        27.9220  -13.5540   19.2070 S.3   410  MET410     -0.1393
     64  CE        27.4240  -12.6300   17.7310 C.3   410  MET410      0.0692
     65  N         28.1830   -8.5790   13.1300 N.3   417  ILE417     -0.1245
     66  CA        29.2610   -8.0790   13.9640 C.3   417  ILE417      0.1561
     67  C         30.2580   -7.4510   13.0250 C.2   417  ILE417      0.2260
     68  O         30.7870   -6.3890   13.2950 O.2   417  ILE417     -0.2867
     69  CB        29.9050   -9.2370   14.7650 C.3   417  ILE417      0.0252
     70  CG1       31.4320   -9.1110   14.8520 C.3   417  ILE417      0.0019
     71  CG2       29.5750  -10.5620   14.1430 C.3   417  ILE417      0.0019
     72  CD1       31.9200   -8.4800   16.1570 C.3   417  ILE417      0.0001
     73  N         38.0120  -10.2680   13.3300 N.3   534  VAL534     -0.1245
     74  CA        36.7040  -10.9180   13.3330 C.3   534  VAL534      0.1561
     75  C         36.1680  -11.0460   11.9250 C.2   534  VAL534      0.2260
     76  O         35.0210  -10.7330   11.6070 O.2   534  VAL534     -0.2867
     77  CB        35.7130  -10.2950   14.3290 C.3   534  VAL534      0.0252
     78  CG1       35.9710  -10.8640   15.7170 C.3   534  VAL534      0.0019
     79  CG2       35.8080   -8.7680   14.3380 C.3   534  VAL534      0.0019
     80  N         36.4080  -14.8630   12.2170 N.3   538  LEU538     -0.1245
     81  CA        35.0120  -15.2780   12.3430 C.3   538  LEU538      0.1561
     82  C         34.5890  -16.1440   11.1690 C.2   538  LEU538      0.2260
     83  O         34.8250  -17.3550   11.1780 O.2   538  LEU538     -0.2867
     84  CB        34.0670  -14.0800   12.5740 C.3   538  LEU538      0.0270
     85  CG        32.5800  -14.4220   12.7720 C.3   538  LEU538      0.0019
     86  CD1       32.3940  -15.8290   13.3290 C.3   538  LEU538      0.0001
     87  CD2       31.8870  -13.4090   13.6520 C.3   538  LEU538      0.0001
@<TRIPOS>BOND
     1    82    83    2
     2    82    81    1
     3    76    75    2
     4    75    74    1
     5    80    81    1
     6    81    84    1
     7    84    85    1
     8    85    86    1
     9    85    87    1
    10    67    68    2
    11    67    66    1
    12    65    66    1
    13    73    74    1
    14    74    77    1
    15    66    69    1
    16    71    69    1
    17    77    79    1
    18    77    78    1
    19    69    70    1
    20    70    72    1
    21    60    59    2
    22    59    58    1
    23    42    41    2
    24    58    57    1
    25    58    61    1
    26    41    40    1
    27    43    40    1
    28    43    44    1
    29    64    63    1
    30    61    62    1
    31    40    39    1
    32    44    46   ar
    33    44    45   ar
    34    62    63    1
    35    46    48   ar
    36    45    47   ar
    37    39    36   am
    38    48    49   ar
    39    34    35    1
    40    47    49   ar
    41    53    52    2
    42    36    35    1
    43    36    37    2
    44    35    38    1
    45    52    51    1
    46    51    50    1
    47    51    54    1
    48    54    55    1
    49    54    56    1
    50    20    17    1
    51    17    16    1
    52    17    18    1
    53    14    13    1
    54     8     9    1
    55    19    18    2
    56    18    21   am
    57     9    12    1
    58     9    10    1
    59    13    15    1
    60    13    12    1
    61    10    11    2
    62    21    22    1
    63    27    28    1
    64    33    31    1
    65    28    31    1
    66    28    29    1
    67    22    23    1
    68    22    25    1
    69    26    25    1
    70     4     3    2
    71    31    32    1
    72    30    29    2
    73    23    24    2
    74     3     2    1
    75     5     2    1
    76     5     6    1
    77     2     1    1
    78     6     7    1
    79     1     7    1
