@<TRIPOS>MOLECULE
tmp/2o01Q07.pdb
 98 97 0 0 0
SMALL
GASTEIGER

@<TRIPOS>ATOM
      1  N         -9.0980   26.0660   16.3800 N.3    20  LEU20      -0.1231
      2  CA        -9.0780   26.6130   17.7390 C.3    20  LEU20       0.1693
      3  C         -7.6570   26.8020   18.2770 C.2    20  LEU20       0.2592
      4  O         -7.4390   27.5420   19.2490 O.2    20  LEU20      -0.2718
      5  CB        -9.9610   25.7870   18.6780 C.3    20  LEU20       0.0284
      6  CG       -11.4400   25.8790   18.2920 C.3    20  LEU20       0.0019
      7  CD1      -11.7740   24.8710   17.2080 C.3    20  LEU20       0.0001
      8  CD2      -12.3170   25.6680   19.5070 C.3    20  LEU20       0.0001
      9  N         -6.7050   26.1300   17.6300 N.am   21  GLY21      -0.1957
     10  CA        -5.3080   26.4950   17.7400 C.3    21  GLY21       0.1869
     11  C         -5.2220   27.9200   17.2350 C.2    21  GLY21       0.2309
     12  O         -4.9960   28.8580   18.0170 O.2    21  GLY21      -0.2863
     13  N         -7.3030   29.8390   16.7520 N.3    23  ALA23      -0.1231
     14  CA        -8.2040   30.6560   17.5400 C.3    23  ALA23       0.1694
     15  C         -7.4720   31.1160   18.7890 C.2    23  ALA23       0.2593
     16  O         -7.8080   32.1610   19.3640 O.2    23  ALA23      -0.2718
     17  CB        -9.4730   29.8980   17.9040 C.3    23  ALA23       0.0304
     18  N         -6.4610   30.3410   19.1890 N.am   24  GLY24      -0.1942
     19  CA        -5.7130   30.6000   20.4180 C.3    24  GLY24       0.2014
     20  C         -5.0570   31.9590   20.3580 C.2    24  GLY24       0.2638
     21  O         -5.5190   32.9260   20.9830 O.2    24  GLY24      -0.2714
     22  N         -3.9930   32.0330   19.5650 N.am   25  MET25      -0.1976
     23  CA        -3.2720   33.2860   19.3180 C.3    25  MET25       0.1605
     24  C         -4.1720   34.2360   18.5320 C.2    25  MET25       0.2287
     25  O         -3.8360   35.3950   18.3280 O.2    25  MET25      -0.2864
     26  CB        -1.9650   33.0130   18.5620 C.3    25  MET25       0.0413
     27  CG        -1.2680   31.7110   18.9840 C.3    25  MET25       0.0598
     28  SD        -2.3890   30.2810   18.8990 S.3    25  MET25      -0.1393
     29  CE        -1.7690   29.2720   20.2570 C.3    25  MET25       0.0692
     30  N         -6.6060   35.4330   19.7430 N.3    27  LEU27      -0.1245
     31  CA        -6.8970   36.5520   20.6230 C.3    27  LEU27       0.1561
     32  C         -5.8960   37.6860   20.3720 C.2    27  LEU27       0.2260
     33  O         -6.3030   38.7950   20.0070 O.2    27  LEU27      -0.2867
     34  CB        -6.9330   36.1560   22.0920 C.3    27  LEU27       0.0270
     35  CG        -7.2260   37.3980   22.9160 C.3    27  LEU27       0.0019
     36  CD1       -8.6810   37.7900   22.7340 C.3    27  LEU27       0.0001
     37  CD2       -6.8650   37.1710   24.3600 C.3    27  LEU27       0.0001
     38  N         -9.4880   41.4600   18.6130 N.3    31  PHE31      -0.1241
     39  CA       -10.8940   41.7780   18.3230 C.3    31  PHE31       0.1605
     40  C        -10.7610   43.0040   17.4260 C.2    31  PHE31       0.2264
     41  O        -10.7500   42.9140   16.1860 O.2    31  PHE31      -0.2867
     42  CB       -11.6640   42.1730   19.5960 C.3    31  PHE31       0.0534
     43  CG       -12.2630   41.0190   20.3670 C.ar   31  PHE31      -0.0203
     44  CD1      -11.9200   40.8180   21.7130 C.ar   31  PHE31      -0.0042
     45  CD2      -13.2030   40.1670   19.7790 C.ar   31  PHE31      -0.0042
     46  CE1      -12.4810   39.7670   22.4630 C.ar   31  PHE31      -0.0003
     47  CE2      -13.7670   39.1070   20.5110 C.ar   31  PHE31      -0.0003
     48  CZ       -13.4030   38.9050   21.8600 C.ar   31  PHE31      -0.0000
     49  N          2.5060   36.2940   23.4230 N.3    38  ASN38      -0.1240
     50  CA         1.6190   36.2960   24.5780 C.3    38  ASN38       0.1653
     51  C          2.2400   35.9110   25.9070 C.2    38  ASN38       0.2266
     52  O          3.3890   35.4700   25.9780 O.2    38  ASN38      -0.2867
     53  CB         0.4080   35.4130   24.3030 C.3    38  ASN38       0.1155
     54  CG        -0.8220   36.2140   23.9350 C.2    38  ASN38       0.2627
     55  OD1       -0.7520   37.1890   23.1870 O.2    38  ASN38      -0.2716
     56  ND2       -1.9610   35.8060   24.4660 N.am   38  ASN38      -0.0877
     57  N         -0.5340   35.9220   28.9480 N.3    40  PRO40      -0.2102
     58  CA        -1.7430   35.6130   29.6900 C.3    40  PRO40       0.1504
     59  C         -2.6740   34.5720   29.0820 C.2    40  PRO40       0.2576
     60  O         -2.2460   33.7080   28.3190 O.2    40  PRO40      -0.2718
     61  CB        -2.4400   36.9760   29.7800 C.3    40  PRO40       0.0282
     62  CG        -2.0410   37.6840   28.5300 C.3    40  PRO40       0.0208
     63  CD        -0.6810   37.1740   28.1630 C.3    40  PRO40       0.0893
     64  N         -3.9500   34.6990   29.4290 N.am   41  LYS41      -0.1966
     65  CA        -4.8080   33.5380   29.5580 C.3    41  LYS41       0.1728
     66  C         -6.2500   34.0120   29.6580 C.2    41  LYS41       0.2616
     67  O         -6.5050   35.1060   30.1880 O.2    41  LYS41      -0.2715
     68  CB        -4.3980   32.7520   30.8110 C.3    41  LYS41       0.0311
     69  CG        -4.5190   33.5530   32.1130 C.3    41  LYS41       0.0038
     70  CD        -3.4000   33.2410   33.0760 C.3    41  LYS41       0.0206
     71  CE        -3.2440   34.3640   34.0850 C.3    41  LYS41       0.1093
     72  NZ        -2.8760   35.6560   33.4370 N.3    41  LYS41      -0.1314
     73  N         -7.1670   33.1770   29.1580 N.am   42  TRP42      -0.1960
     74  CA        -8.4630   33.6520   28.6770 C.3    42  TRP42       0.1771
     75  C         -8.9770   34.8560   29.4630 C.2    42  TRP42       0.2619
     76  O         -8.4010   35.9480   29.3710 O.2    42  TRP42      -0.2715
     77  CB        -9.4960   32.5270   28.6260 C.3    42  TRP42       0.0590
     78  CG        -9.0250   31.2100   29.1710 C.ar   42  TRP42       0.0006
     79  CD1       -8.0250   30.4160   28.6740 C.ar   42  TRP42       0.0946
     80  CD2       -9.5590   30.5120   30.3090 C.ar   42  TRP42       0.0152
     81  NE1       -7.8960   29.2770   29.4430 N.ar   42  TRP42      -0.2442
     82  CE2       -8.8240   29.3170   30.4520 C.ar   42  TRP42       0.0810
     83  CE3      -10.5790   30.7900   31.2330 C.ar   42  TRP42       0.0012
     84  CZ2       -9.0830   28.4050   31.4730 C.ar   42  TRP42       0.0191
     85  CZ3      -10.8340   29.8790   32.2450 C.ar   42  TRP42       0.0001
     86  CH2      -10.0920   28.7040   32.3540 C.ar   42  TRP42       0.0015
     87  N        -10.0500   34.6610   30.2280 N.am   43  TYR43      -0.1974
     88  CA       -10.5700   35.6840   31.1520 C.3    43  TYR43       0.1639
     89  C        -11.3940   34.9190   32.1970 C.2    43  TYR43       0.2290
     90  O        -12.5230   34.4860   31.8830 O.2    43  TYR43      -0.2864
     91  CB       -11.4480   36.7110   30.4090 C.3    43  TYR43       0.0560
     92  CG       -10.9190   37.0830   29.0410 C.ar   43  TYR43      -0.0198
     93  CD1      -11.3630   36.4110   27.8920 C.ar   43  TYR43      -0.0009
     94  CD2       -9.9500   38.0770   28.8920 C.ar   43  TYR43      -0.0009
     95  CE1      -10.8630   36.7180   26.6420 C.ar   43  TYR43       0.0417
     96  CE2       -9.4430   38.3920   27.6350 C.ar   43  TYR43       0.0417
     97  CZ        -9.9110   37.7080   26.5270 C.ar   43  TYR43       0.1957
     98  OH        -9.4280   38.0340   25.3040 O.3    43  TYR43      -0.2866
@<TRIPOS>BOND
     1    41    40    2
     2     1     2    1
     3    13    14    1
     4     7     6    1
     5    11    10    1
     6    11    12    2
     7    40    39    1
     8    14    17    1
     9    14    15    1
    10     9    10    1
    11     9     3   am
    12     2     3    1
    13     2     5    1
    14     3     4    2
    15     6     5    1
    16     6     8    1
    17    39    38    1
    18    39    42    1
    19    25    24    2
    20    24    23    1
    21    26    27    1
    22    26    23    1
    23    15    18   am
    24    15    16    2
    25    28    27    1
    26    28    29    1
    27    18    19    1
    28    23    22    1
    29    22    20   am
    30    42    43    1
    31    30    31    1
    32    45    43   ar
    33    45    47   ar
    34    33    32    2
    35    20    19    1
    36    20    21    2
    37    43    44   ar
    38    32    31    1
    39    47    48   ar
    40    31    34    1
    41    44    46   ar
    42    48    46   ar
    43    34    35    1
    44    36    35    1
    45    35    37    1
    46    55    54    2
    47    49    50    1
    48    54    53    1
    49    54    56   am
    50    53    50    1
    51    50    51    1
    52    98    97    1
    53    51    52    2
    54    97    95   ar
    55    97    96   ar
    56    95    93   ar
    57    96    94   ar
    58    93    92   ar
    59    63    62    1
    60    63    57    1
    61    60    59    2
    62    62    61    1
    63    77    74    1
    64    77    78    1
    65    79    78   ar
    66    79    81   ar
    67    74    73    1
    68    74    75    1
    69    94    92   ar
    70    57    58    1
    71    92    91    1
    72    59    64   am
    73    59    58    1
    74    73    66   am
    75    78    80   ar
    76    76    75    2
    77    64    65    1
    78    81    82   ar
    79    75    87   am
    80    65    66    1
    81    65    68    1
    82    66    67    2
    83    58    61    1
    84    87    88    1
    85    80    82   ar
    86    80    83   ar
    87    91    88    1
    88    82    84   ar
    89    68    69    1
    90    88    89    1
    91    83    85   ar
    92    84    86   ar
    93    90    89    2
    94    69    70    1
    95    85    86   ar
    96    70    71    1
    97    72    71    1
