@<TRIPOS>MOLECULE
tmp/2o01B29.pdb
 206 202 0 0 0
SMALL
GASTEIGER

@<TRIPOS>ATOM
      1  N         47.1620   -2.7220   29.0350 N.3   345  SER345     -0.1217
      2  CA        46.7940   -1.3700   28.6460 C.3   345  SER345      0.1889
      3  C         46.3210   -0.5880   29.8810 C.2   345  SER345      0.2288
      4  O         46.5830    0.6110   30.0310 O.2   345  SER345     -0.2866
      5  CB        45.7280   -1.4510   27.5630 C.3   345  SER345      0.2089
      6  OG        46.0160   -0.5600   26.4930 O.3   345  SER345     -0.2183
      7  N         48.9090    2.7580   32.0280 N.3   349  GLN349     -0.1245
      8  CA        48.8140    4.0800   32.6420 C.3   349  GLN349      0.1566
      9  C         48.8720    4.0420   34.1690 C.2   349  GLN349      0.2260
     10  O         49.6930    4.7390   34.7740 O.2   349  GLN349     -0.2867
     11  CB        47.6520    4.9500   32.0990 C.3   349  GLN349      0.0367
     12  CG        46.3750    4.2590   31.6950 C.3   349  GLN349      0.0905
     13  CD        46.4160    3.7880   30.2780 C.2   349  GLN349      0.2608
     14  OE1       46.9290    2.7110   29.9990 O.2   349  GLN349     -0.2717
     15  NE2       45.8660    4.5800   29.3700 N.am  349  GLN349     -0.0878
     16  N         52.0050    4.5480   35.3100 N.3   352  TYR352     -0.1241
     17  CA        52.4280    5.9150   35.0820 C.3   352  TYR352      0.1605
     18  C         51.5070    6.8510   35.8890 C.2   352  TYR352      0.2264
     19  O         51.9880    7.5650   36.8150 O.2   352  TYR352     -0.2867
     20  CB        52.4730    6.2850   33.5730 C.3   352  TYR352      0.0534
     21  CG        51.3800    7.2390   33.1120 C.ar  352  TYR352     -0.0201
     22  CD1       50.3630    6.7940   32.3080 C.ar  352  TYR352     -0.0009
     23  CD2       51.3560    8.5750   33.4980 C.ar  352  TYR352     -0.0009
     24  CE1       49.3370    7.6400   31.8990 C.ar  352  TYR352      0.0417
     25  CE2       50.3290    9.4040   33.1060 C.ar  352  TYR352      0.0417
     26  CZ        49.3320    8.9260   32.2980 C.ar  352  TYR352      0.1957
     27  OH        48.3230    9.7240   31.8570 O.3   352  TYR352     -0.2866
     28  N         56.9520    2.5010   28.8880 N.3   371  TYR371     -0.1241
     29  CA        55.5420    2.6590   28.5920 C.3   371  TYR371      0.1605
     30  C         55.3360    1.9130   27.3190 C.2   371  TYR371      0.2264
     31  O         55.0830    0.7120   27.3820 O.2   371  TYR371     -0.2867
     32  CB        55.1250    4.1150   28.4360 C.3   371  TYR371      0.0534
     33  CG        53.6740    4.2850   28.0150 C.ar  371  TYR371     -0.0201
     34  CD1       52.7170    4.8530   28.8780 C.ar  371  TYR371     -0.0009
     35  CD2       53.2560    3.8990   26.7540 C.ar  371  TYR371     -0.0009
     36  CE1       51.3800    5.0190   28.4720 C.ar  371  TYR371      0.0417
     37  CE2       51.9500    4.0460   26.3550 C.ar  371  TYR371      0.0417
     38  CZ        51.0170    4.6040   27.2030 C.ar  371  TYR371      0.1957
     39  OH        49.7320    4.7220   26.7470 O.3   371  TYR371     -0.2866
     40  N         53.0280   -1.1020   26.0800 N.3   375  GLN375     -0.1245
     41  CA        51.8810   -0.9130   25.2220 C.3   375  GLN375      0.1566
     42  C         51.9330   -1.9330   24.0540 C.2   375  GLN375      0.2260
     43  O         50.9380   -2.6210   23.7770 O.2   375  GLN375     -0.2867
     44  CB        51.7590    0.5470   24.7590 C.3   375  GLN375      0.0367
     45  CG        50.3890    1.1780   25.0160 C.3   375  GLN375      0.0905
     46  CD        49.2360    0.5240   24.2370 C.2   375  GLN375      0.2608
     47  OE1       48.0600    0.6850   24.5840 O.2   375  GLN375     -0.2717
     48  NE2       49.5660   -0.2180   23.1930 N.am  375  GLN375     -0.0878
     49  N         32.7720   15.7180   26.6650 N.3   458  PHE458     -0.1227
     50  CA        32.3080   14.5520   27.4600 C.3   458  PHE458      0.1736
     51  C         33.2600   13.9090   28.4720 C.2   458  PHE458      0.2595
     52  O         32.8500   13.6560   29.6150 O.2   458  PHE458     -0.2718
     53  CB        31.7840   13.4370   26.5560 C.3   458  PHE458      0.0547
     54  CG        30.3590   13.5890   26.1490 C.ar  458  PHE458     -0.0202
     55  CD1       29.8530   14.8100   25.7670 C.ar  458  PHE458     -0.0042
     56  CD2       29.5310   12.4750   26.0860 C.ar  458  PHE458     -0.0042
     57  CE1       28.5450   14.9250   25.3570 C.ar  458  PHE458     -0.0003
     58  CE2       28.2050   12.5730   25.6760 C.ar  458  PHE458     -0.0003
     59  CZ        27.7180   13.7920   25.3070 C.ar  458  PHE458     -0.0000
     60  N         34.4900   13.5900   28.0640 N.am  459  ALA459     -0.1980
     61  CA        35.3520   12.8010   28.9540 C.3   459  ALA459      0.1597
     62  C         35.3230   13.5890   30.2170 C.2   459  ALA459      0.2287
     63  O         34.8670   13.0930   31.2420 O.2   459  ALA459     -0.2864
     64  CB        36.7430   12.6820   28.4280 C.3   459  ALA459      0.0319
     65  N         33.4350   15.2380   32.0970 N.3   461  TRP461     -0.1227
     66  CA        32.6810   14.9950   33.3400 C.3   461  TRP461      0.1737
     67  C         33.4700   14.3100   34.4720 C.2   461  TRP461      0.2595
     68  O         33.5610   14.8230   35.5940 O.2   461  TRP461     -0.2718
     69  CB        31.4560   14.1430   33.0120 C.3   461  TRP461      0.0564
     70  CG        30.1820   14.8210   33.2740 C.ar  461  TRP461      0.0003
     71  CD1       29.9550   16.1640   33.2930 C.ar  461  TRP461      0.0946
     72  CD2       28.9290   14.1950   33.5410 C.ar  461  TRP461      0.0152
     73  NE1       28.6360   16.4160   33.5740 N.ar  461  TRP461     -0.2442
     74  CE2       27.9810   15.2250   33.7270 C.ar  461  TRP461      0.0810
     75  CE3       28.5140   12.8620   33.6510 C.ar  461  TRP461      0.0012
     76  CZ2       26.6450   14.9720   34.0050 C.ar  461  TRP461      0.0191
     77  CZ3       27.1760   12.6070   33.9400 C.ar  461  TRP461      0.0001
     78  CH2       26.2570   13.6610   34.1030 C.ar  461  TRP461      0.0015
     79  N         33.9470   13.1090   34.1630 N.am  462  ILE462     -0.1966
     80  CA        35.0440   12.4380   34.8430 C.3   462  ILE462      0.1727
     81  C         36.1310   13.4550   35.2540 C.2   462  ILE462      0.2616
     82  O         35.9780   14.6690   35.0180 O.2   462  ILE462     -0.2715
     83  CB        35.6610   11.4090   33.8480 C.3   462  ILE462      0.0290
     84  CG1       34.6460   10.3430   33.4380 C.3   462  ILE462      0.0022
     85  CG2       36.8420   10.7430   34.4310 C.3   462  ILE462      0.0023
     86  CD1       33.3530   10.8790   32.8720 C.3   462  ILE462      0.0001
     87  N         37.2120   12.9540   35.8680 N.am  463  GLN463     -0.1977
     88  CA        38.4870   13.6880   35.9670 C.3   463  GLN463      0.1601
     89  C         38.2890   14.9550   36.7590 C.2   463  GLN463      0.2287
     90  O         39.2490   15.6500   37.0570 O.2   463  GLN463     -0.2864
     91  CB        39.0700   13.9810   34.5580 C.3   463  GLN463      0.0394
     92  CG        40.3110   14.9180   34.4720 C.3   463  GLN463      0.0908
     93  CD        40.8440   15.1010   33.0300 C.2   463  GLN463      0.2608
     94  OE1       40.8670   14.1580   32.2490 O.2   463  GLN463     -0.2717
     95  NE2       41.2900   16.3120   32.6980 N.am  463  GLN463     -0.0878
     96  N         36.1050   12.6430   39.8020 N.3   466  HIS466     -0.1241
     97  CA        37.1710   11.7950   40.3200 C.3   466  HIS466      0.1621
     98  C         38.2270   12.6940   40.8960 C.2   466  HIS466      0.2264
     99  O         39.3800   12.2810   41.0360 O.2   466  HIS466     -0.2867
    100  CB        37.7940   10.8760   39.2580 C.3   466  HIS466      0.0745
    101  CG        36.8130   10.3110   38.2680 C.ar  466  HIS466      0.0817
    102  ND1       37.2160    9.6350   37.1360 N.ar  466  HIS466     -0.2268
    103  CD2       35.4580   10.3390   38.2300 C.ar  466  HIS466      0.1154
    104  CE1       36.1510    9.2660   36.4500 C.ar  466  HIS466      0.1986
    105  NE2       35.0730    9.6850   37.0870 N.ar  466  HIS466     -0.2212
    106  N         45.5070   12.3520   35.7350 N.3   508  PHE508     -0.1227
    107  CA        44.3060   12.6870   34.9780 C.3   508  PHE508      0.1736
    108  C         44.4760   13.8030   33.9570 C.2   508  PHE508      0.2595
    109  O         43.5340   14.5560   33.7000 O.2   508  PHE508     -0.2718
    110  CB        43.1460   12.9730   35.9280 C.3   508  PHE508      0.0547
    111  CG        42.5770   11.7430   36.5600 C.ar  508  PHE508     -0.0202
    112  CD1       42.6300   11.5660   37.9500 C.ar  508  PHE508     -0.0042
    113  CD2       41.9870   10.7470   35.7720 C.ar  508  PHE508     -0.0042
    114  CE1       42.1010   10.4140   38.5710 C.ar  508  PHE508     -0.0003
    115  CE2       41.4600    9.5970   36.3700 C.ar  508  PHE508     -0.0003
    116  CZ        41.5210    9.4330   37.7940 C.ar  508  PHE508     -0.0000
    117  N         45.6740   13.8840   33.3740 N.am  509  LEU509     -0.1980
    118  CA        46.0830   14.9260   32.3930 C.3   509  LEU509      0.1596
    119  C         45.1070   16.0080   31.9060 C.2   509  LEU509      0.2287
    120  O         43.9050   15.7870   31.7520 O.2   509  LEU509     -0.2864
    121  CB        46.8060   14.2910   31.1900 C.3   509  LEU509      0.0297
    122  CG        46.2800   13.0430   30.4720 C.3   509  LEU509      0.0022
    123  CD1       45.7690   11.9200   31.4430 C.3   509  LEU509      0.0001
    124  CD2       45.2370   13.4850   29.4580 C.3   509  LEU509      0.0001
    125  N         43.2010   17.8550   29.9580 N.3   511  ILE511     -0.1245
    126  CA        42.4880   17.8050   28.6340 C.3   511  ILE511      0.1561
    127  C         42.4320   19.0380   27.7510 C.2   511  ILE511      0.2260
    128  O         41.7240   19.9960   28.0480 O.2   511  ILE511     -0.2867
    129  CB        41.0360   17.2880   28.6810 C.3   511  ILE511      0.0252
    130  CG1       40.8970   15.9790   29.4500 C.3   511  ILE511      0.0019
    131  CG2       40.5170   17.0600   27.2590 C.3   511  ILE511      0.0019
    132  CD1       39.3870   15.5730   29.6650 C.3   511  ILE511      0.0001
    133  N         41.8730   11.0490   20.1660 N.3   519  HIS519     -0.1241
    134  CA        41.0660   10.1300   20.9530 C.3   519  HIS519      0.1621
    135  C         40.0410    9.4730   20.0410 C.2   519  HIS519      0.2264
    136  O         40.0720    8.2500   19.8710 O.2   519  HIS519     -0.2867
    137  CB        40.4750   10.7890   22.2150 C.3   519  HIS519      0.0745
    138  CG        41.2580   10.4960   23.4620 C.ar  519  HIS519      0.0817
    139  ND1       42.4770   11.0770   23.7330 N.ar  519  HIS519     -0.2268
    140  CD2       41.0010    9.6610   24.4990 C.ar  519  HIS519      0.1154
    141  CE1       42.9300   10.6250   24.8880 C.ar  519  HIS519      0.1986
    142  NE2       42.0500    9.7710   25.3760 N.ar  519  HIS519     -0.2212
    143  N         41.7010    7.1570   17.7320 N.3   522  ILE522     -0.1231
    144  CA        41.9620    5.8850   18.4530 C.3   522  ILE522      0.1692
    145  C         40.7020    5.0500   18.7560 C.2   522  ILE522      0.2591
    146  O         40.7790    3.8450   18.8740 O.2   522  ILE522     -0.2718
    147  CB        43.0580    5.9610   19.6240 C.3   522  ILE522      0.0266
    148  CG1       42.7680    4.9740   20.7620 C.3   522  ILE522      0.0019
    149  CG2       43.2550    7.3680   20.1620 C.3   522  ILE522      0.0020
    150  CD1       43.9270    4.7190   21.7380 C.3   522  ILE522      0.0001
    151  N         39.5370    5.6670   18.8230 N.am  523  ALA523     -0.1980
    152  CA        38.3000    4.8970   18.6080 C.3   523  ALA523      0.1597
    153  C         37.8700    4.8000   17.1010 C.2   523  ALA523      0.2287
    154  O         36.7150    4.4570   16.7910 O.2   523  ALA523     -0.2864
    155  CB        37.1610    5.4310   19.4760 C.3   523  ALA523      0.0319
    156  N         41.3590    0.5150   16.2430 N.3   526  LEU526     -0.1245
    157  CA        40.5700   -0.5850   16.7550 C.3   526  LEU526      0.1561
    158  C         39.4070   -1.1910   15.9040 C.2   526  LEU526      0.2260
    159  O         39.5460   -2.3190   15.4070 O.2   526  LEU526     -0.2867
    160  CB        40.0220   -0.1250   18.1200 C.3   526  LEU526      0.0270
    161  CG        40.8180    0.9600   18.8530 C.3   526  LEU526      0.0019
    162  CD1       40.3860    1.0270   20.3010 C.3   526  LEU526      0.0001
    163  CD2       42.3000    0.6730   18.7800 C.3   526  LEU526      0.0001
    164  N         48.5090    6.2750   18.7540 N.3   589  VAL589     -0.1245
    165  CA        48.5420    6.6240   20.1710 C.3   589  VAL589      0.1561
    166  C         49.8910    6.4290   20.8900 C.2   589  VAL589      0.2260
    167  O         49.9550    5.9280   22.0280 O.2   589  VAL589     -0.2867
    168  CB        47.4470    5.8780   20.9080 C.3   589  VAL589      0.0252
    169  CG1       46.9820    6.6950   22.1160 C.3   589  VAL589      0.0019
    170  CG2       46.2960    5.6660   19.9580 C.3   589  VAL589      0.0019
    171  N         50.6130   11.2570   20.0540 N.3   592  TYR592     -0.1227
    172  CA        50.0000   11.6600   21.3080 C.3   592  TYR592      0.1736
    173  C         50.7890   10.9560   22.4150 C.2   592  TYR592      0.2595
    174  O         51.4380    9.9330   22.1890 O.2   592  TYR592     -0.2718
    175  CB        48.5240   11.2470   21.3370 C.3   592  TYR592      0.0548
    176  CG        47.7680   11.5460   22.6230 C.ar  592  TYR592     -0.0200
    177  CD1       48.3490   11.2980   23.8630 C.ar  592  TYR592     -0.0009
    178  CD2       46.4600   12.0440   22.5930 C.ar  592  TYR592     -0.0009
    179  CE1       47.6930   11.5610   25.0250 C.ar  592  TYR592      0.0417
    180  CE2       45.7750   12.3070   23.7630 C.ar  592  TYR592      0.0417
    181  CZ        46.4050   12.0580   24.9830 C.ar  592  TYR592      0.1957
    182  OH        45.7710   12.2780   26.1900 O.3   592  TYR592     -0.2866
    183  N         50.7450   11.4970   23.6180 N.am  593  TRP593     -0.1976
    184  CA        51.7390   11.1420   24.6030 C.3   593  TRP593      0.1640
    185  C         53.0220   11.8660   24.2350 C.2   593  TRP593      0.2290
    186  O         53.2200   12.9860   24.6990 O.2   593  TRP593     -0.2864
    187  CB        51.9420    9.6350   24.7340 C.3   593  TRP593      0.0576
    188  CG        51.5380    9.1220   26.0880 C.ar  593  TRP593      0.0006
    189  CD1       50.2740    8.7330   26.4970 C.ar  593  TRP593      0.0946
    190  CD2       52.3940    8.9520   27.2230 C.ar  593  TRP593      0.0152
    191  NE1       50.3050    8.3240   27.8160 N.ar  593  TRP593     -0.2442
    192  CE2       51.5890    8.4430   28.2840 C.ar  593  TRP593      0.0810
    193  CE3       53.7590    9.1720   27.4470 C.ar  593  TRP593      0.0012
    194  CZ2       52.1120    8.1500   29.5390 C.ar  593  TRP593      0.0191
    195  CZ3       54.2760    8.8760   28.6780 C.ar  593  TRP593      0.0001
    196  CH2       53.4550    8.3630   29.7170 C.ar  593  TRP593      0.0015
    197  N         52.7330   15.3920   27.1320 N.3   597  HIS597     -0.1241
    198  CA        53.9010   14.9230   27.9230 C.3   597  HIS597      0.1621
    199  C         55.2350   15.6200   27.6180 C.2   597  HIS597      0.2264
    200  O         55.7250   16.4210   28.4210 O.2   597  HIS597     -0.2867
    201  CB        54.1060   13.4250   27.7550 C.3   597  HIS597      0.0745
    202  CG        52.8640   12.6090   27.9210 C.ar  597  HIS597      0.0817
    203  ND1       51.7450   12.7840   27.1380 N.ar  597  HIS597     -0.2268
    204  CD2       52.5810   11.5870   28.7590 C.ar  597  HIS597      0.1154
    205  CE1       50.8230   11.9110   27.4930 C.ar  597  HIS597      0.1986
    206  NE2       51.3040   11.1730   28.4760 N.ar  597  HIS597     -0.2212
@<TRIPOS>BOND
     1   159   158    2
     2   158   157    1
     3   156   157    1
     4   157   160    1
     5   154   153    2
     6   153   152    1
     7   143   144    1
     8   160   161    1
     9   144   145    1
    10   144   147    1
    11   152   151    1
    12   152   155    1
    13   164   165    1
    14   145   151   am
    15   145   146    2
    16   163   161    1
    17   161   162    1
    18   147   149    1
    19   147   148    1
    20   136   135    2
    21   170   168    1
    22   135   134    1
    23   171   172    1
    24   133   134    1
    25   165   166    1
    26   165   168    1
    27   148   150    1
    28   166   167    2
    29   168   169    1
    30   134   137    1
    31   172   175    1
    32   172   173    1
    33   175   176    1
    34   174   173    2
    35   137   138    1
    36   173   183   am
    37   178   176   ar
    38   178   180   ar
    39   176   177   ar
    40    48    46   am
    41   138   139   ar
    42   138   140   ar
    43   183   184    1
    44   139   141   ar
    45   180   181   ar
    46    43    42    2
    47   177   179   ar
    48    42    41    1
    49   185   184    1
    50   185   186    2
    51    46    47    2
    52    46    45    1
    53   140   142   ar
    54   184   187    1
    55   187   188    1
    56    44    45    1
    57    44    41    1
    58   141   142   ar
    59   181   179   ar
    60   181   182    1
    61    41    40    1
    62    59    57   ar
    63    59    58   ar
    64    57    55   ar
    65    58    56   ar
    66    55    54   ar
    67    56    54   ar
    68   188   189   ar
    69   188   190   ar
    70    54    53    1
    71    37    35   ar
    72    37    38   ar
    73     6     5    1
    74   189   191   ar
    75    53    50    1
    76    49    50    1
    77    39    38    1
    78    35    33   ar
    79   197   198    1
    80   203   205   ar
    81   203   202   ar
    82    38    36   ar
    83   190   193   ar
    84   190   192   ar
    85   131   129    1
    86    30    31    2
    87    30    29    1
    88   193   195   ar
    89    50    51    1
    90   205   206   ar
    91     5     2    1
    92   199   198    1
    93   199   200    2
    94   127   128    2
    95   127   126    1
    96   201   202    1
    97   201   198    1
    98   191   192   ar
    99   202   204   ar
   100    33    32    1
   101    33    34   ar
   102    60    51   am
   103    60    61    1
   104   192   194   ar
   105    64    61    1
   106    32    29    1
   107    36    34   ar
   108    51    52    2
   109   206   204   ar
   110    29    28    1
   111   126   129    1
   112   126   125    1
   113     2     1    1
   114     2     3    1
   115   195   196   ar
   116   129   130    1
   117    61    62    1
   118    15    13   am
   119   130   132    1
   120   124   122    1
   121   194   196   ar
   122     3     4    2
   123    14    13    2
   124    62    63    2
   125    13    12    1
   126   122   121    1
   127   122   123    1
   128   121   118    1
   129    12    11    1
   130   120   119    2
   131    27    26    1
   132    24    26   ar
   133    24    22   ar
   134   119   118    1
   135     7     8    1
   136    65    66    1
   137    11     8    1
   138    94    93    2
   139    26    25   ar
   140    22    21   ar
   141   118   117    1
   142     8     9    1
   143    95    93   am
   144    86    84    1
   145    69    70    1
   146    69    66    1
   147    93    92    1
   148    25    23   ar
   149    21    23   ar
   150    21    20    1
   151    70    71   ar
   152    70    72   ar
   153    71    73   ar
   154    66    67    1
   155   117   108   am
   156    84    83    1
   157    72    75   ar
   158    72    74   ar
   159    20    17    1
   160    73    74   ar
   161    75    77   ar
   162   109   108    2
   163    74    76   ar
   164    83    85    1
   165    83    80    1
   166    77    78   ar
   167   108   107    1
   168    76    78   ar
   169    79    67   am
   170    79    80    1
   171     9    10    2
   172    67    68    2
   173    92    91    1
   174    91    88    1
   175    80    81    1
   176   107   106    1
   177   107   110    1
   178    82    81    2
   179    17    16    1
   180    17    18    1
   181    81    87   am
   182   113   115   ar
   183   113   111   ar
   184    87    88    1
   185    18    19    2
   186   110   111    1
   187    88    89    1
   188   115   116   ar
   189   104   105   ar
   190   104   102   ar
   191   111   112   ar
   192    89    90    2
   193   105   103   ar
   194   102   101   ar
   195   116   114   ar
   196   112   114   ar
   197   103   101   ar
   198   101   100    1
   199   100    97    1
   200    96    97    1
   201    97    98    1
   202    98    99    2
