@<TRIPOS>MOLECULE
tmp/2o01B34.pdb
 122 117 0 0 0
SMALL
GASTEIGER

@<TRIPOS>ATOM
      1  N         63.2570  -23.4000    6.3260 N.3    21  TRP21      -0.1241
      2  CA        62.1390  -22.5110    6.6600 C.3    21  TRP21       0.1605
      3  C         61.1560  -23.4180    7.3920 C.2    21  TRP21       0.2264
      4  O         61.0540  -23.3570    8.6310 O.2    21  TRP21      -0.2867
      5  CB        61.4440  -21.9030    5.4220 C.3    21  TRP21       0.0550
      6  CG        62.3040  -21.6290    4.2540 C.ar   21  TRP21       0.0003
      7  CD1       62.1330  -22.1100    3.0050 C.ar   21  TRP21       0.0946
      8  CD2       63.4740  -20.8130    4.2140 C.ar   21  TRP21       0.0152
      9  NE1       63.1250  -21.6600    2.1750 N.ar   21  TRP21      -0.2442
     10  CE2       63.9660  -20.8580    2.8980 C.ar   21  TRP21       0.0810
     11  CE3       64.1620  -20.0560    5.1640 C.ar   21  TRP21       0.0012
     12  CZ2       65.1080  -20.1600    2.4970 C.ar   21  TRP21       0.0191
     13  CZ3       65.3090  -19.3680    4.7650 C.ar   21  TRP21       0.0001
     14  CH2       65.7620  -19.4210    3.4410 C.ar   21  TRP21       0.0015
     15  N         68.6970    2.4630   10.6550 N.3   651  PHE651     -0.1241
     16  CA        68.4560    1.0410   10.7130 C.3   651  PHE651      0.1605
     17  C         66.9550    0.8680   10.5990 C.2   651  PHE651      0.2264
     18  O         66.4560    0.5130    9.5420 O.2   651  PHE651     -0.2867
     19  CB        68.9600    0.4760   12.0250 C.3   651  PHE651      0.0534
     20  CG        69.0550   -1.0070   12.0570 C.ar  651  PHE651     -0.0203
     21  CD1       69.6310   -1.7120   10.9980 C.ar  651  PHE651     -0.0042
     22  CD2       68.6310   -1.7120   13.1800 C.ar  651  PHE651     -0.0042
     23  CE1       69.7560   -3.1080   11.0400 C.ar  651  PHE651     -0.0003
     24  CE2       68.7670   -3.1200   13.2500 C.ar  651  PHE651     -0.0003
     25  CZ        69.3250   -3.8200   12.1720 C.ar  651  PHE651     -0.0000
     26  N         66.2410    1.6060    7.5540 N.3   654  LEU654     -0.1231
     27  CA        66.4670    0.5230    6.5210 C.3   654  LEU654      0.1693
     28  C         65.6320   -0.7430    6.7700 C.2   654  LEU654      0.2591
     29  O         64.6240   -0.9840    6.1030 O.2   654  LEU654     -0.2718
     30  CB        67.9500    0.1140    6.3120 C.3   654  LEU654      0.0284
     31  CG        68.2520   -0.9060    5.1460 C.3   654  LEU654      0.0019
     32  CD1       67.7190   -0.4870    3.7440 C.3   654  LEU654      0.0001
     33  CD2       69.7350   -1.3890    5.0200 C.3   654  LEU654      0.0001
     34  N         66.1060   -1.5590    7.7060 N.am  655  VAL655     -0.1980
     35  CA        65.3750   -2.7070    8.2650 C.3   655  VAL655      0.1595
     36  C         63.8220   -2.5830    8.2760 C.2   655  VAL655      0.2287
     37  O         63.1180   -3.5980    8.2920 O.2   655  VAL655     -0.2864
     38  CB        65.8750   -3.0400    9.7180 C.3   655  VAL655      0.0276
     39  CG1       65.6240   -4.5140   10.0740 C.3   655  VAL655      0.0022
     40  CG2       67.3170   -2.7190    9.8610 C.3   655  VAL655      0.0022
     41  N         62.9060   -2.5750    3.5410 N.3   658  THR658     -0.1218
     42  CA        63.1280   -3.8050    2.8140 C.3   658  THR658      0.1862
     43  C         62.2850   -4.9620    3.2970 C.2   658  THR658      0.2287
     44  O         62.3320   -6.0310    2.7260 O.2   658  THR658     -0.2866
     45  CB        64.5640   -4.1980    2.8990 C.3   658  THR658      0.1770
     46  OG1       64.6540   -5.4400    3.6050 O.3   658  THR658     -0.2211
     47  CG2       65.3250   -3.1320    3.6350 C.3   658  THR658      0.0375
     48  N         60.3740   -5.5440   -0.4630 N.3   661  MET661     -0.1230
     49  CA        60.5750   -6.4530   -1.5530 C.3   661  MET661      0.1702
     50  C         59.6370   -7.6560   -1.2530 C.2   661  MET661      0.2592
     51  O         58.5720   -7.8170   -1.8950 O.2   661  MET661     -0.2718
     52  CB        62.0680   -6.8120   -1.6490 C.3   661  MET661      0.0401
     53  CG        62.5440   -7.2620   -3.0380 C.3   661  MET661      0.0596
     54  SD        64.2970   -6.9090   -3.3910 S.3   661  MET661     -0.1393
     55  CE        65.0930   -7.6230   -1.9410 C.3   661  MET661      0.0692
     56  N         60.0020   -8.4640   -0.2550 N.am  662  PHE662     -0.1976
     57  CA        59.0780   -9.4180    0.3120 C.3   662  PHE662      0.1639
     58  C         57.9940   -8.4700    0.7470 C.2   662  PHE662      0.2290
     59  O         58.2570   -7.5500    1.5520 O.2   662  PHE662     -0.2864
     60  CB        59.6400  -10.1050    1.5610 C.3   662  PHE662      0.0560
     61  CG        61.1410  -10.1650    1.6400 C.ar  662  PHE662     -0.0200
     62  CD1       61.7390  -11.1540    2.3830 C.ar  662  PHE662     -0.0042
     63  CD2       61.9500   -9.2200    1.0210 C.ar  662  PHE662     -0.0042
     64  CE1       63.1200  -11.2240    2.4940 C.ar  662  PHE662     -0.0003
     65  CE2       63.3430   -9.2780    1.1210 C.ar  662  PHE662     -0.0003
     66  CZ        63.9230  -10.2790    1.8650 C.ar  662  PHE662     -0.0000
     67  N         60.4340  -18.5240   -2.3190 N.3   699  LEU699     -0.1245
     68  CA        59.8180  -18.6770   -1.0040 C.3   699  LEU699      0.1561
     69  C         58.3050  -18.8030   -0.9260 C.2   699  LEU699      0.2260
     70  O         57.5870  -17.8710   -1.2230 O.2   699  LEU699     -0.2867
     71  CB        60.2540  -17.4980   -0.1660 C.3   699  LEU699      0.0270
     72  CG        61.6660  -17.7320    0.2650 C.3   699  LEU699      0.0019
     73  CD1       62.3600  -16.4030    0.3710 C.3   699  LEU699      0.0001
     74  CD2       61.6050  -18.4900    1.5690 C.3   699  LEU699      0.0001
     75  N         55.4330  -16.2330    4.2130 N.3   703  GLN703     -0.1245
     76  CA        56.8730  -16.0490    4.3580 C.3   703  GLN703      0.1566
     77  C         57.1270  -14.7260    3.6840 C.2   703  GLN703      0.2260
     78  O         57.2490  -13.6670    4.3230 O.2   703  GLN703     -0.2867
     79  CB        57.6520  -17.0930    3.5740 C.3   703  GLN703      0.0367
     80  CG        57.9560  -18.3030    4.3050 C.3   703  GLN703      0.0905
     81  CD        59.3740  -18.6970    4.0990 C.2   703  GLN703      0.2608
     82  OE1       60.1220  -18.8090    5.0680 O.2   703  GLN703     -0.2717
     83  NE2       59.7760  -18.9020    2.8450 N.am  703  GLN703     -0.0878
     84  N         55.2670  -13.1200    5.7130 N.3   706  LEU706     -0.1231
     85  CA        55.8660  -13.2130    7.0730 C.3   706  LEU706      0.1693
     86  C         57.1250  -12.3150    7.1910 C.2   706  LEU706      0.2591
     87  O         57.0140  -11.2120    7.7190 O.2   706  LEU706     -0.2718
     88  CB        56.1580  -14.6800    7.4900 C.3   706  LEU706      0.0284
     89  CG        56.2010  -15.3490    8.9130 C.3   706  LEU706      0.0019
     90  CD1       57.4780  -15.0430    9.7090 C.3   706  LEU706      0.0001
     91  CD2       54.9470  -15.1320    9.7850 C.3   706  LEU706      0.0001
     92  N         58.2950  -12.7190    6.6880 N.am  707  VAL707     -0.1980
     93  CA        59.4840  -11.8290    6.8040 C.3   707  VAL707      0.1595
     94  C         59.3660  -10.4000    6.1910 C.2   707  VAL707      0.2287
     95  O         60.2610   -9.5400    6.3890 O.2   707  VAL707     -0.2864
     96  CB        60.7920  -12.5150    6.3710 C.3   707  VAL707      0.0276
     97  CG1       61.1600  -13.5260    7.3890 C.3   707  VAL707      0.0022
     98  CG2       60.6330  -13.1790    5.0080 C.3   707  VAL707      0.0022
     99  N         58.9400   -8.9840    9.9710 N.3   710  VAL710     -0.1231
    100  CA        59.9190   -9.1620   11.0540 C.3   710  VAL710      0.1692
    101  C         61.2050   -8.6990   10.4180 C.2   710  VAL710      0.2592
    102  O         62.3150   -9.2080   10.6550 O.2   710  VAL710     -0.2718
    103  CB        60.0290  -10.5710   11.6340 C.3   710  VAL710      0.0266
    104  CG1       60.2510  -11.5640   10.5440 C.3   710  VAL710      0.0020
    105  CG2       61.1550  -10.6600   12.7260 C.3   710  VAL710      0.0020
    106  N         60.9970   -7.7360    9.5400 N.am  711  HIS711     -0.1976
    107  CA        62.0160   -6.8580    9.0460 C.3   711  HIS711      0.1656
    108  C         61.3560   -5.5080    9.3010 C.2   711  HIS711      0.2291
    109  O         61.8890   -4.6730   10.0440 O.2   711  HIS711     -0.2864
    110  CB        62.2770   -7.1710    7.5650 C.3   711  HIS711      0.0771
    111  CG        63.3830   -8.1660    7.3550 C.ar  711  HIS711      0.0820
    112  ND1       64.4660   -7.9110    6.5350 N.ar  711  HIS711     -0.2267
    113  CD2       63.6020   -9.3950    7.8960 C.ar  711  HIS711      0.1154
    114  CE1       65.2860   -8.9470    6.5640 C.ar  711  HIS711      0.1986
    115  NE2       64.7840   -9.8640    7.3760 N.ar  711  HIS711     -0.2212
    116  N         59.9800   -5.1770   13.0950 N.3   714  VAL714     -0.1245
    117  CA        61.3330   -5.0950   13.6770 C.3   714  VAL714      0.1561
    118  C         61.9370   -3.6900   13.3960 C.2   714  VAL714      0.2260
    119  O         62.3310   -2.9730   14.3320 O.2   714  VAL714     -0.2867
    120  CB        62.2440   -6.2810   13.2590 C.3   714  VAL714      0.0252
    121  CG1       63.7280   -5.9060   13.2980 C.3   714  VAL714      0.0019
    122  CG2       62.0000   -7.4350   14.1680 C.3   714  VAL714      0.0019
@<TRIPOS>BOND
     1    54    53    1
     2    54    55    1
     3    53    52    1
     4    67    68    1
     5    51    50    2
     6    52    49    1
     7    49    50    1
     8    49    48    1
     9    50    56   am
    10    70    69    2
    11    68    69    1
    12    68    71    1
    13    56    57    1
    14    71    72    1
    15    72    73    1
    16    72    74    1
    17    57    58    1
    18    57    60    1
    19    58    59    2
    20    63    65   ar
    21    63    61   ar
    22    65    66   ar
    23    60    61    1
    24    61    62   ar
    25    66    64   ar
    26     9    10   ar
    27     9     7   ar
    28    62    64   ar
    29    12    10   ar
    30    12    14   ar
    31    44    43    2
    32    42    45    1
    33    42    43    1
    34    42    41    1
    35    83    81   am
    36    10     8   ar
    37    45    46    1
    38    45    47    1
    39     7     6   ar
    40    14    13   ar
    41    79    80    1
    42    79    76    1
    43    77    78    2
    44    77    76    1
    45    32    31    1
    46    81    80    1
    47    81    82    2
    48    75    76    1
    49     8     6   ar
    50     8    11   ar
    51     6     5    1
    52    13    11   ar
    53    98    96    1
    54    33    31    1
    55    31    30    1
    56     5     2    1
    57    84    85    1
    58    29    28    2
    59    94    95    2
    60    94    93    1
    61    30    27    1
    62     1     2    1
    63    96    93    1
    64    96    97    1
    65    27    28    1
    66    27    26    1
    67   112   114   ar
    68   112   111   ar
    69   114   115   ar
    70     2     3    1
    71    92    93    1
    72    92    86   am
    73    28    34   am
    74    85    86    1
    75    85    88    1
    76    86    87    2
    77   111   110    1
    78   111   113   ar
    79   115   113   ar
    80     3     4    2
    81    88    89    1
    82   110   107    1
    83    34    35    1
    84    35    36    1
    85    35    38    1
    86    36    37    2
    87    89    90    1
    88    89    91    1
    89   107   108    1
    90   107   106    1
    91   108   109    2
    92   106   101   am
    93    18    17    2
    94    38    40    1
    95    38    39    1
    96    99   100    1
    97   101   102    2
    98   101   100    1
    99   104   103    1
   100    17    16    1
   101    15    16    1
   102    16    19    1
   103    21    23   ar
   104    21    20   ar
   105    23    25   ar
   106   100   103    1
   107   103   105    1
   108    19    20    1
   109    20    22   ar
   110    25    24   ar
   111   116   117    1
   112    22    24   ar
   113   120   121    1
   114   120   117    1
   115   120   122    1
   116   118   117    1
   117   118   119    2
