@<TRIPOS>MOLECULE
tmp/2o01A21.pdb
 141 138 0 0 0
SMALL
GASTEIGER

@<TRIPOS>ATOM
      1  N         36.3530   -1.6450  -15.1820 N.3    25  TRP25      -0.1241
      2  CA        37.7990   -1.4480  -15.2110 C.3    25  TRP25       0.1605
      3  C         38.4670   -2.6420  -15.8090 C.2    25  TRP25       0.2264
      4  O         39.6840   -2.8060  -15.6920 O.2    25  TRP25      -0.2867
      5  CB        38.3790   -1.1720  -13.8380 C.3    25  TRP25       0.0550
      6  CG        37.5640   -1.6730  -12.7360 C.ar   25  TRP25       0.0003
      7  CD1       36.8080   -2.8210  -12.6990 C.ar   25  TRP25       0.0946
      8  CD2       37.4230   -1.0590  -11.4730 C.ar   25  TRP25       0.0152
      9  NE1       36.2040   -2.9410  -11.4820 N.ar   25  TRP25      -0.2442
     10  CE2       36.5680   -1.8740  -10.7060 C.ar   25  TRP25       0.0810
     11  CE3       37.9380    0.1060  -10.9070 C.ar   25  TRP25       0.0012
     12  CZ2       36.2220   -1.5620   -9.4060 C.ar   25  TRP25       0.0191
     13  CZ3       37.5870    0.4180   -9.6160 C.ar   25  TRP25       0.0001
     14  CH2       36.7420   -0.4180   -8.8760 C.ar   25  TRP25       0.0015
     15  N         48.2940   15.2440    1.5360 N.3   651  GLY651     -0.1225
     16  CA        47.5580   14.3560    0.6860 C.3   651  GLY651      0.1811
     17  C         48.3790   13.9210   -0.5150 C.2   651  GLY651      0.2280
     18  O         47.8220   13.4580   -1.5010 O.2   651  GLY651     -0.2866
     19  N         49.7960   10.5270    2.3160 N.3   654  PHE654     -0.1227
     20  CA        48.6140    9.7240    2.0590 C.3   654  PHE654      0.1736
     21  C         48.3790    9.8540    0.5430 C.2   654  PHE654      0.2595
     22  O         48.2720   10.9770    0.0410 O.2   654  PHE654     -0.2718
     23  CB        47.4460   10.2760    2.8630 C.3   654  PHE654      0.0547
     24  CG        46.0740    9.8290    2.3810 C.ar  654  PHE654     -0.0202
     25  CD1       45.0470    9.6130    3.2970 C.ar  654  PHE654     -0.0042
     26  CD2       45.7910    9.6700    1.0380 C.ar  654  PHE654     -0.0042
     27  CE1       43.8060    9.2440    2.8980 C.ar  654  PHE654     -0.0003
     28  CE2       44.5530    9.2940    0.6390 C.ar  654  PHE654     -0.0003
     29  CZ        43.5550    9.0790    1.5720 C.ar  654  PHE654     -0.0000
     30  N         48.2900    8.7220   -0.1730 N.am  655  VAL655     -0.1980
     31  CA        48.3930    8.6740   -1.6480 C.3   655  VAL655      0.1595
     32  C         49.8560    8.6690   -2.0650 C.2   655  VAL655      0.2287
     33  O         50.2030    9.0190   -3.1890 O.2   655  VAL655     -0.2864
     34  CB        47.5410    9.7410   -2.3880 C.3   655  VAL655      0.0276
     35  CG1       48.3350   10.4940   -3.4820 C.3   655  VAL655      0.0022
     36  CG2       46.2870    9.1050   -2.9450 C.3   655  VAL655      0.0022
     37  N         47.8520    5.1590    1.0920 N.3   658  PHE658     -0.1241
     38  CA        46.7520    4.5400    0.3680 C.3   658  PHE658      0.1605
     39  C         47.1600    3.9360   -1.0100 C.2   658  PHE658      0.2264
     40  O         46.4010    3.9650   -2.0020 O.2   658  PHE658     -0.2867
     41  CB        45.6630    5.5860    0.1940 C.3   658  PHE658      0.0534
     42  CG        44.5960    5.1750   -0.7110 C.ar  658  PHE658     -0.0203
     43  CD1       44.6650    5.4890   -2.0410 C.ar  658  PHE658     -0.0042
     44  CD2       43.5330    4.4640   -0.2290 C.ar  658  PHE658     -0.0042
     45  CE1       43.6930    5.1040   -2.8910 C.ar  658  PHE658     -0.0003
     46  CE2       42.5490    4.0740   -1.0500 C.ar  658  PHE658     -0.0003
     47  CZ        42.6350    4.3850   -2.4020 C.ar  658  PHE658     -0.0000
     48  N         47.6480   -0.3720    0.9120 N.3   661  MET661     -0.1230
     49  CA        46.4020   -0.9600    1.3920 C.3   661  MET661      0.1702
     50  C         45.7900   -1.8930    0.3350 C.2   661  MET661      0.2592
     51  O         45.1460   -2.9060    0.6580 O.2   661  MET661     -0.2718
     52  CB        45.4390    0.1310    1.7470 C.3   661  MET661      0.0401
     53  CG        44.2770   -0.3780    2.4810 C.3   661  MET661      0.0596
     54  SD        42.9200   -0.6220    1.3570 S.3   661  MET661     -0.1393
     55  CE        42.6730    1.0060    0.6440 C.3   661  MET661      0.0692
     56  N         46.0150   -1.5090   -0.9270 N.am  662  PHE662     -0.1976
     57  CA        45.5900   -2.2130   -2.1210 C.3   662  PHE662      0.1639
     58  C         46.7610   -3.0290   -2.5990 C.2   662  PHE662      0.2290
     59  O         46.5590   -3.9690   -3.3660 O.2   662  PHE662     -0.2864
     60  CB        45.3390   -1.2020   -3.2430 C.3   662  PHE662      0.0560
     61  CG        43.8880   -0.8300   -3.4940 C.ar  662  PHE662     -0.0200
     62  CD1       43.5300    0.5250   -3.6180 C.ar  662  PHE662     -0.0042
     63  CD2       42.9150   -1.7970   -3.7110 C.ar  662  PHE662     -0.0042
     64  CE1       42.2270    0.9040   -3.8970 C.ar  662  PHE662     -0.0003
     65  CE2       41.5910   -1.4250   -3.9830 C.ar  662  PHE662     -0.0003
     66  CZ        41.2500   -0.0800   -4.0730 C.ar  662  PHE662     -0.0000
     67  N         38.6840   -9.1440    0.7090 N.3   670  TRP670     -0.1241
     68  CA        38.0100   -8.0280    0.0490 C.3   670  TRP670      0.1605
     69  C         36.7410   -8.5760   -0.6420 C.2   670  TRP670      0.2264
     70  O         35.6330   -8.2010   -0.2180 O.2   670  TRP670     -0.2867
     71  CB        38.9150   -7.1940   -0.8710 C.3   670  TRP670      0.0550
     72  CG        39.7990   -6.2300   -0.1210 C.ar  670  TRP670      0.0003
     73  CD1       41.1580   -6.2860   -0.0100 C.ar  670  TRP670      0.0946
     74  CD2       39.3830   -5.0780    0.6270 C.ar  670  TRP670      0.0152
     75  NE1       41.6210   -5.2430    0.7640 N.ar  670  TRP670     -0.2442
     76  CE2       40.5510   -4.4850    1.1670 C.ar  670  TRP670      0.0810
     77  CE3       38.1370   -4.4880    0.9000 C.ar  670  TRP670      0.0012
     78  CZ2       40.5090   -3.3190    1.9490 C.ar  670  TRP670      0.0191
     79  CZ3       38.0970   -3.3340    1.6910 C.ar  670  TRP670      0.0001
     80  CH2       39.2790   -2.7640    2.1950 C.ar  670  TRP670      0.0015
     81  N         37.3850   -5.6660   -6.8070 N.3   695  LEU695     -0.1245
     82  CA        38.6140   -5.3580   -7.5750 C.3   695  LEU695      0.1561
     83  C         39.6330   -6.4860   -7.8480 C.2   695  LEU695      0.2260
     84  O         40.3380   -6.9620   -6.9430 O.2   695  LEU695     -0.2867
     85  CB        39.2980   -4.1220   -6.9820 C.3   695  LEU695      0.0270
     86  CG        40.6790   -3.7180   -7.4820 C.3   695  LEU695      0.0019
     87  CD1       40.9600   -2.2900   -7.1380 C.3   695  LEU695      0.0001
     88  CD2       41.8080   -4.6300   -7.0010 C.3   695  LEU695      0.0001
     89  N         44.2520   -5.5600  -11.3130 N.3   699  GLN699     -0.1245
     90  CA        43.6720   -4.2350  -11.1650 C.3   699  GLN699      0.1566
     91  C         44.1990   -3.4750   -9.9310 C.2   699  GLN699      0.2260
     92  O         44.0690   -2.2410   -9.8470 O.2   699  GLN699     -0.2867
     93  CB        42.1510   -4.3860  -11.1000 C.3   699  GLN699      0.0367
     94  CG        41.3550   -3.1100  -10.8980 C.3   699  GLN699      0.0905
     95  CD        39.9150   -3.4140  -10.5510 C.2   699  GLN699      0.2608
     96  OE1       39.2690   -2.6470   -9.8260 O.2   699  GLN699     -0.2717
     97  NE2       39.4040   -4.5540  -11.0420 N.am  699  GLN699     -0.0878
     98  N         47.4280   -2.6640  -10.1090 N.3   702  ALA702     -0.1231
     99  CA        47.1940   -1.5500  -11.0060 C.3   702  ALA702      0.1694
    100  C         46.6090   -0.3690  -10.2140 C.2   702  ALA702      0.2591
    101  O         45.6990    0.3540  -10.6860 O.2   702  ALA702     -0.2718
    102  CB        46.2730   -1.9590  -12.1840 C.3   702  ALA702      0.0304
    103  N         47.1210   -0.1960   -8.9960 N.am  703  VAL703     -0.1980
    104  CA        46.7610    0.9630   -8.2020 C.3   703  VAL703      0.1595
    105  C         47.8570    1.2780   -7.1940 C.2   703  VAL703      0.2287
    106  O         48.3970    2.3840   -7.2060 O.2   703  VAL703     -0.2864
    107  CB        45.3530    0.8510   -7.5900 C.3   703  VAL703      0.0276
    108  CG1       45.4050    0.2800   -6.2120 C.3   703  VAL703      0.0022
    109  CG2       44.6840    2.1920   -7.5970 C.3   703  VAL703      0.0022
    110  N         50.4020    0.9280   -7.6270 N.3   705  VAL705     -0.1231
    111  CA        51.4520    1.1600   -8.6550 C.3   705  VAL705      0.1692
    112  C         51.3460    2.5550   -9.1790 C.2   705  VAL705      0.2593
    113  O         52.3010    3.3120   -9.2350 O.2   705  VAL705     -0.2718
    114  CB        51.2790    0.2490   -9.9110 C.3   705  VAL705      0.0266
    115  CG1       49.9550    0.5760  -10.6800 C.3   705  VAL705      0.0020
    116  CG2       52.5170    0.3520  -10.8320 C.3   705  VAL705      0.0020
    117  N         50.1550    2.8560   -9.6360 N.am  706  THR706     -0.1939
    118  CA        49.7990    4.2070   -9.8530 C.3   706  THR706      0.2028
    119  C         49.9400    4.9650   -8.5140 C.2   706  THR706      0.2642
    120  O         50.7560    5.8820   -8.4520 O.2   706  THR706     -0.2714
    121  CB        48.4570    4.2660  -10.5450 C.3   706  THR706      0.1808
    122  OG1       47.9490    2.9250  -10.6320 O.3   706  THR706     -0.2208
    123  CG2       48.6750    4.7430  -11.9930 C.3   706  THR706      0.0379
    124  N         49.2650    4.5310   -7.4380 N.am  707  HIS707     -0.1973
    125  CA        49.1830    5.3140   -6.1620 C.3   707  HIS707      0.1656
    126  C         50.4440    5.5310   -5.3620 C.2   707  HIS707      0.2291
    127  O         50.7810    6.6710   -5.0150 O.2   707  HIS707     -0.2864
    128  CB        48.1140    4.7670   -5.2550 C.3   707  HIS707      0.0771
    129  CG        46.7410    5.0500   -5.7490 C.ar  707  HIS707      0.0820
    130  ND1       46.4390    5.0950   -7.0890 N.ar  707  HIS707     -0.2267
    131  CD2       45.5830    5.2850   -5.0900 C.ar  707  HIS707      0.1154
    132  CE1       45.1560    5.3710   -7.2300 C.ar  707  HIS707      0.1986
    133  NE2       44.6130    5.4920   -6.0330 N.ar  707  HIS707     -0.2212
    134  N         51.8980    7.7630   -7.7560 N.3   710  LEU710     -0.1245
    135  CA        51.5580    9.1710   -7.7930 C.3   710  LEU710      0.1561
    136  C         52.2370    9.7550   -6.5880 C.2   710  LEU710      0.2260
    137  O         53.0050   10.7150   -6.7260 O.2   710  LEU710     -0.2867
    138  CB        50.0550    9.4090   -7.7410 C.3   710  LEU710      0.0270
    139  CG        49.5390   10.8700   -7.7270 C.3   710  LEU710      0.0019
    140  CD1       50.5160   11.8950   -8.2950 C.3   710  LEU710      0.0001
    141  CD2       48.1590   10.9730   -8.4310 C.3   710  LEU710      0.0001
@<TRIPOS>BOND
     1     3     4    2
     2     3     2    1
     3     2     1    1
     4     2     5    1
     5     5     6    1
     6     6     7   ar
     7     6     8   ar
     8     7     9   ar
     9   102    99    1
    10   123   121    1
    11     9    10   ar
    12     8    11   ar
    13     8    10   ar
    14    89    90    1
    15    90    93    1
    16    90    91    1
    17    93    94    1
    18    97    95   am
    19    99   100    1
    20    99    98    1
    21    11    13   ar
    22    94    95    1
    23   116   114    1
    24    10    12   ar
    25   101   100    2
    26   115   114    1
    27   122   121    1
    28    95    96    2
    29   121   118    1
    30   100   103   am
    31    91    92    2
    32   114   111    1
    33   118   117    1
    34   118   119    1
    35   117   112   am
    36    13    14   ar
    37    12    14   ar
    38   113   112    2
    39   112   111    1
    40   103   104    1
    41   111   110    1
    42   119   120    2
    43   119   124   am
    44   141   139    1
    45   140   139    1
    46   104   107    1
    47   104   105    1
    48    83    82    1
    49    83    84    2
    50   135   134    1
    51   135   138    1
    52   135   136    1
    53   138   139    1
    54   109   107    1
    55   107   108    1
    56    82    85    1
    57    82    81    1
    58    86    87    1
    59    86    88    1
    60    86    85    1
    61   124   125    1
    62   132   130   ar
    63   132   133   ar
    64   106   105    2
    65   130   129   ar
    66   137   136    2
    67   125   126    1
    68   125   128    1
    69   133   131   ar
    70   129   128    1
    71   129   131   ar
    72   126   127    2
    73    66    65   ar
    74    66    64   ar
    75    65    63   ar
    76    64    62   ar
    77    63    61   ar
    78    62    61   ar
    79    61    60    1
    80    35    34    1
    81    59    58    2
    82    60    57    1
    83    33    32    2
    84    36    34    1
    85    45    47   ar
    86    45    43   ar
    87    58    57    1
    88    47    46   ar
    89    34    31    1
    90    57    56    1
    91    32    31    1
    92    43    42   ar
    93    40    39    2
    94    31    30    1
    95    18    17    2
    96    46    44   ar
    97    39    38    1
    98    56    50   am
    99    71    72    1
   100    71    68    1
   101    42    44   ar
   102    42    41    1
   103    69    70    2
   104    69    68    1
   105    17    16    1
   106    30    21   am
   107    72    73   ar
   108    72    74   ar
   109    73    75   ar
   110    22    21    2
   111    68    67    1
   112    41    38    1
   113    50    51    2
   114    50    49    1
   115    38    37    1
   116    21    20    1
   117    74    77   ar
   118    74    76   ar
   119    28    26   ar
   120    28    29   ar
   121    55    54    1
   122    16    15    1
   123    75    76   ar
   124    77    79   ar
   125    48    49    1
   126    26    24   ar
   127    76    78   ar
   128    54    53    1
   129    49    52    1
   130    29    27   ar
   131    79    80   ar
   132    52    53    1
   133    78    80   ar
   134    20    19    1
   135    20    23    1
   136    24    23    1
   137    24    25   ar
   138    27    25   ar
