@<TRIPOS>MOLECULE
tmp/2o01F01.pdb
 78 76 0 0 0
SMALL
GASTEIGER

@<TRIPOS>ATOM
      1  N         25.9260   23.0210   16.5120 N.3    83  PHE83      -0.1227
      2  CA        26.0200   21.9800   15.4980 C.3    83  PHE83       0.1736
      3  C         24.6970   21.1690   15.3410 C.2    83  PHE83       0.2595
      4  O         24.5550   20.4100   14.3870 O.2    83  PHE83      -0.2718
      5  CB        27.3170   21.1140   15.6500 C.3    83  PHE83       0.0547
      6  CG        27.2530   20.0260   16.7230 C.ar   83  PHE83      -0.0202
      7  CD1       26.4360   18.8930   16.5730 C.ar   83  PHE83      -0.0042
      8  CD2       28.0500   20.1020   17.8550 C.ar   83  PHE83      -0.0042
      9  CE1       26.3730   17.8970   17.5600 C.ar   83  PHE83      -0.0003
     10  CE2       27.9950   19.0810   18.8360 C.ar   83  PHE83      -0.0003
     11  CZ        27.1490   17.9930   18.6810 C.ar   83  PHE83      -0.0000
     12  N         23.7350   21.3380   16.2530 N.am   84  ILE84      -0.1980
     13  CA        22.4520   20.5980   16.2100 C.3    84  ILE84       0.1595
     14  C         21.2930   21.3520   15.4910 C.2    84  ILE84       0.2287
     15  O         20.6240   20.7930   14.6030 O.2    84  ILE84      -0.2864
     16  CB        22.0690   20.0960   17.6270 C.3    84  ILE84       0.0276
     17  CG1       22.8430   18.8190   17.9360 C.3    84  ILE84       0.0022
     18  CG2       20.5600   19.9090   17.8100 C.3    84  ILE84       0.0022
     19  CD1       22.8920   17.8460   16.7800 C.3    84  ILE84       0.0001
     20  N         22.1420   23.4380   13.3110 N.3    86  PRO86      -0.2102
     21  CA        22.6590   22.8340   12.0920 C.3    86  PRO86       0.1504
     22  C         23.3060   21.4570   12.3430 C.2    86  PRO86       0.2576
     23  O         24.5070   21.2740   12.0760 O.2    86  PRO86      -0.2718
     24  CB        23.7550   23.8150   11.6990 C.3    86  PRO86       0.0282
     25  CG        24.3250   24.2470   13.0440 C.3    86  PRO86       0.0208
     26  CD        23.2510   24.0200   14.0870 C.3    86  PRO86       0.0893
     27  N         22.5270   20.5120   12.8670 N.am   87  GLY87      -0.1957
     28  CA        23.0100   19.1450   13.1360 C.3    87  GLY87       0.1869
     29  C         22.0460   18.0880   12.6390 C.2    87  GLY87       0.2309
     30  O         22.4480   17.0250   12.1650 O.2    87  GLY87      -0.2863
     31  N         21.6890   17.5830    8.1340 N.3    90  PHE90      -0.1227
     32  CA        22.5300   16.5550    7.5540 C.3    90  PHE90       0.1736
     33  C         21.8200   15.2050    7.5470 C.2    90  PHE90       0.2595
     34  O         21.6350   14.6490    6.4720 O.2    90  PHE90      -0.2718
     35  CB        23.8810   16.4210    8.2440 C.3    90  PHE90       0.0547
     36  CG        24.3320   15.0200    8.3280 C.ar   90  PHE90      -0.0202
     37  CD1       24.7400   14.3480    7.1730 C.ar   90  PHE90      -0.0042
     38  CD2       24.2540   14.3300    9.5450 C.ar   90  PHE90      -0.0042
     39  CE1       25.1050   12.9930    7.2300 C.ar   90  PHE90      -0.0003
     40  CE2       24.6100   12.9820    9.6310 C.ar   90  PHE90      -0.0003
     41  CZ        25.0450   12.3030    8.4700 C.ar   90  PHE90      -0.0000
     42  N         21.4360   14.6740    8.7200 N.am   91  LEU91      -0.1980
     43  CA        20.6660   13.4280    8.7780 C.3    91  LEU91       0.1596
     44  C         19.6430   13.4740    7.6450 C.2    91  LEU91       0.2287
     45  O         19.6380   12.6510    6.7020 O.2    91  LEU91      -0.2864
     46  CB        19.8790   13.3140   10.0830 C.3    91  LEU91       0.0297
     47  CG        20.2920   13.7640   11.4770 C.3    91  LEU91       0.0022
     48  CD1       19.2000   13.2090   12.3830 C.3    91  LEU91       0.0001
     49  CD2       21.6980   13.3320   11.9620 C.3    91  LEU91       0.0001
     50  N         19.3970   15.7550    5.1870 N.3    93  ILE93      -0.1231
     51  CA        20.0000   15.8850    3.8380 C.3    93  ILE93       0.1692
     52  C         20.5110   14.5800    3.2070 C.2    93  ILE93       0.2592
     53  O         20.5400   14.4490    1.9900 O.2    93  ILE93      -0.2718
     54  CB        21.0510   17.0450    3.7060 C.3    93  ILE93       0.0266
     55  CG1       20.9270   17.7320    2.3350 C.3    93  ILE93       0.0019
     56  CG2       22.4820   16.5600    3.9080 C.3    93  ILE93       0.0020
     57  CD1       19.9250   18.8850    2.2530 C.3    93  ILE93       0.0001
     58  N         20.8790   13.6080    4.0220 N.am   94  ALA94      -0.1966
     59  CA        21.3950   12.3680    3.4800 C.3    94  ALA94       0.1728
     60  C         20.2440   11.3880    3.1520 C.2    94  ALA94       0.2616
     61  O         19.5640   11.5970    2.1500 O.2    94  ALA94      -0.2715
     62  CB        22.4730   11.7700    4.4090 C.3    94  ALA94       0.0334
     63  N         20.0080   10.3890    4.0150 N.am   95  GLY95      -0.1955
     64  CA        19.1410    9.2040    3.7820 C.3    95  GLY95       0.1869
     65  C         17.7840    9.2160    3.0720 C.2    95  GLY95       0.2309
     66  O         17.1300    8.1760    2.9570 O.2    95  GLY95      -0.2863
     67  N         18.1380   10.7450    0.1390 N.3    97  ILE97      -0.1231
     68  CA        18.8860   10.3240   -1.0150 C.3    97  ILE97       0.1692
     69  C         18.6740    8.8100   -1.0370 C.2    97  ILE97       0.2592
     70  O         18.5750    8.1930   -2.0950 O.2    97  ILE97      -0.2718
     71  CB        20.4100   10.5540   -0.8410 C.3    97  ILE97       0.0266
     72  CG1       20.7540   11.9470   -0.3020 C.3    97  ILE97       0.0019
     73  CG2       21.1410   10.2720   -2.1520 C.3    97  ILE97       0.0020
     74  CD1       22.1570   12.0170    0.2470 C.3    97  ILE97       0.0001
     75  N         18.6310    8.2270    0.1620 N.am   98  GLY98      -0.1957
     76  CA        18.2970    6.8180    0.3540 C.3    98  GLY98       0.1869
     77  C         16.9640    6.4010   -0.2550 C.2    98  GLY98       0.2309
     78  O         16.8350    5.2770   -0.7550 O.2    98  GLY98      -0.2863
@<TRIPOS>BOND
     1    73    71    1
     2    70    69    2
     3    69    68    1
     4    69    75   am
     5    68    71    1
     6    68    67    1
     7    71    72    1
     8    78    77    2
     9    72    74    1
    10    77    76    1
    11    75    76    1
    12    53    52    2
    13    61    60    2
    14    57    55    1
    15    55    54    1
    16    66    65    2
    17    65    64    1
    18    60    59    1
    19    60    63   am
    20    52    51    1
    21    52    58   am
    22    59    58    1
    23    59    62    1
    24    54    51    1
    25    54    56    1
    26    64    63    1
    27    51    50    1
    28    34    33    2
    29    45    44    2
    30    37    39   ar
    31    37    36   ar
    32    39    41   ar
    33    33    32    1
    34    33    42   am
    35    32    31    1
    36    32    35    1
    37    44    43    1
    38    35    36    1
    39    36    38   ar
    40    41    40   ar
    41    42    43    1
    42    43    46    1
    43    38    40   ar
    44    46    47    1
    45    47    49    1
    46    47    48    1
    47    24    21    1
    48    24    25    1
    49    23    22    2
    50    21    22    1
    51    21    20    1
    52    30    29    2
    53    22    27   am
    54    29    28    1
    55    27    28    1
    56    25    26    1
    57    20    26    1
    58     4     3    2
    59    15    14    2
    60     3     2    1
    61     3    12   am
    62    14    13    1
    63     2     5    1
    64     2     1    1
    65     5     6    1
    66    13    12    1
    67    13    16    1
    68     7     6   ar
    69     7     9   ar
    70     6     8   ar
    71    19    17    1
    72     9    11   ar
    73    16    18    1
    74    16    17    1
    75     8    10   ar
    76    11    10   ar
