@<TRIPOS>MOLECULE
tmp/2o01B28.pdb
 72 70 0 0 0
SMALL
GASTEIGER

@<TRIPOS>ATOM
      1  N         34.8590   14.9560   38.9630 N.3   465  ALA465     -0.1245
      2  CA        34.2250   14.1560   40.0040 C.3   465  ALA465      0.1562
      3  C         35.2620   13.2520   40.6330 C.2   465  ALA465      0.2260
      4  O         35.3150   13.1250   41.8540 O.2   465  ALA465     -0.2867
      5  CB        33.0510   13.3300   39.4470 C.3   465  ALA465      0.0290
      6  N         30.0130   17.4600   43.8120 N.3   477  LEU477     -0.1245
      7  CA        31.2000   16.6920   44.2320 C.3   477  LEU477      0.1561
      8  C         32.5110   17.4910   44.3750 C.2   477  LEU477      0.2260
      9  O         32.7520   18.1230   45.4200 O.2   477  LEU477     -0.2867
     10  CB        31.3950   15.4190   43.3900 C.3   477  LEU477      0.0270
     11  CG        32.2110   14.2750   44.0180 C.3   477  LEU477      0.0019
     12  CD1       31.7880   12.9500   43.4640 C.3   477  LEU477      0.0001
     13  CD2       33.6990   14.4390   43.8140 C.3   477  LEU477      0.0001
     14  N         28.5350   16.1080   47.3610 N.3   483  PRO483     -0.2102
     15  CA        27.7720   14.9920   47.8980 C.3   483  PRO483      0.1504
     16  C         27.8040   13.7500   47.0130 C.2   483  PRO483      0.2575
     17  O         26.7750   13.1050   46.7570 O.2   483  PRO483     -0.2718
     18  CB        26.3570   15.5620   47.9890 C.3   483  PRO483      0.0282
     19  CG        26.2940   16.6220   46.9230 C.3   483  PRO483      0.0208
     20  CD        27.7070   16.8810   46.4260 C.3   483  PRO483      0.0893
     21  N         28.9960   13.4830   46.5030 N.am  484  ALA484     -0.1980
     22  CA        29.4410   12.1480   46.1970 C.3   484  ALA484      0.1597
     23  C         30.7990   12.1070   46.8860 C.2   484  ALA484      0.2287
     24  O         31.2000   11.0750   47.4400 O.2   484  ALA484     -0.2864
     25  CB        29.5520   11.9430   44.7230 C.3   484  ALA484      0.0319
     26  N         31.1330   13.6080   49.5350 N.3   486  ASN486     -0.1225
     27  CA        30.7340   13.4510   50.9500 C.3   486  ASN486      0.1785
     28  C         30.0630   12.1000   51.2260 C.2   486  ASN486      0.2597
     29  O         29.7790   11.3270   50.2870 O.2   486  ASN486     -0.2718
     30  CB        29.8730   14.6200   51.4760 C.3   486  ASN486      0.1169
     31  CG        30.5330   15.3740   52.6410 C.2   486  ASN486      0.2627
     32  OD1       31.5040   16.0940   52.4630 O.2   486  ASN486     -0.2716
     33  ND2       29.9760   15.2220   53.8320 N.am  486  ASN486     -0.0877
     34  N         29.8080   11.8430   52.5150 N.am  487  ALA487     -0.1966
     35  CA        29.5640   10.5030   53.0540 C.3   487  ALA487      0.1728
     36  C         30.8920    9.7330   53.1010 C.2   487  ALA487      0.2616
     37  O         31.0460    8.7590   53.8650 O.2   487  ALA487     -0.2715
     38  CB        28.4870    9.7520   52.2460 C.3   487  ALA487      0.0334
     39  N         31.8460   10.2080   52.2930 N.am  488  GLY488     -0.1955
     40  CA        33.1870    9.6430   52.1940 C.3   488  GLY488      0.1869
     41  C         34.3240   10.6520   52.2610 C.2   488  GLY488      0.2309
     42  O         35.4680   10.2980   51.9750 O.2   488  GLY488     -0.2863
     43  N         37.9980    9.4680   53.9210 N.3   491  ILE491     -0.1231
     44  CA        38.3540    8.2050   53.3520 C.3   491  ILE491      0.1692
     45  C         38.6110    8.4280   51.8720 C.2   491  ILE491      0.2592
     46  O         37.7540    8.9450   51.1450 O.2   491  ILE491     -0.2718
     47  CB        37.2310    7.1630   53.5440 C.3   491  ILE491      0.0266
     48  CG1       35.8350    7.8450   53.6920 C.3   491  ILE491      0.0019
     49  CG2       37.6060    6.1540   54.6670 C.3   491  ILE491      0.0020
     50  CD1       35.5590    8.7230   54.9720 C.3   491  ILE491      0.0001
     51  N         39.8250    8.0580   51.4620 N.am  492  TRP492     -0.1962
     52  CA        40.3040    8.0740   50.0750 C.3   492  TRP492      0.1771
     53  C         40.3720    9.4740   49.4590 C.2   492  TRP492      0.2619
     54  O         41.0720    9.6630   48.4570 O.2   492  TRP492     -0.2715
     55  CB        39.4940    7.1170   49.1660 C.3   492  TRP492      0.0590
     56  CG        38.4810    6.2540   49.8940 C.ar  492  TRP492      0.0006
     57  CD1       37.1190    6.3210   49.7910 C.ar  492  TRP492      0.0946
     58  CD2       38.7590    5.2210   50.8440 C.ar  492  TRP492      0.0152
     59  NE1       36.5380    5.3900   50.6050 N.ar  492  TRP492     -0.2442
     60  CE2       37.5190    4.7030   51.2680 C.ar  492  TRP492      0.0810
     61  CE3       39.9390    4.6820   51.3790 C.ar  492  TRP492      0.0012
     62  CZ2       37.4220    3.6750   52.2080 C.ar  492  TRP492      0.0191
     63  CZ3       39.8440    3.6570   52.3070 C.ar  492  TRP492      0.0001
     64  CH2       38.5920    3.1660   52.7120 C.ar  492  TRP492      0.0015
     65  N         39.6770   10.4540   50.0500 N.am  493  LEU493     -0.1977
     66  CA        39.4180   11.6940   49.3140 C.3   493  LEU493      0.1596
     67  C         39.8260   13.0960   49.8460 C.2   493  LEU493      0.2287
     68  O         39.1280   14.0900   49.6170 O.2   493  LEU493     -0.2864
     69  CB        37.9930   11.6630   48.7580 C.3   493  LEU493      0.0297
     70  CG        37.8600   11.0070   47.3770 C.3   493  LEU493      0.0022
     71  CD1       39.0740   11.2920   46.4640 C.3   493  LEU493      0.0001
     72  CD2       37.6130    9.5210   47.5200 C.3   493  LEU493      0.0001
@<TRIPOS>BOND
     1     1     2    1
     2     5     2    1
     3     2     3    1
     4     3     4    2
     5    10    11    1
     6    10     7    1
     7    12    11    1
     8     6     7    1
     9    13    11    1
    10     7     8    1
    11     8     9    2
    12    25    22    1
    13    22    21    1
    14    22    23    1
    15    20    19    1
    16    20    14    1
    17    71    70    1
    18    21    16   am
    19    17    16    2
    20    23    24    2
    21    19    18    1
    22    16    15    1
    23    14    15    1
    24    70    72    1
    25    70    69    1
    26    15    18    1
    27    54    53    2
    28    69    66    1
    29    55    56    1
    30    55    52    1
    31    66    67    1
    32    66    65    1
    33    53    65   am
    34    53    52    1
    35    26    27    1
    36    68    67    2
    37    57    56   ar
    38    57    59   ar
    39    56    58   ar
    40    52    51    1
    41    29    28    2
    42    59    60   ar
    43    58    60   ar
    44    58    61   ar
    45    27    28    1
    46    27    30    1
    47    46    45    2
    48    28    34   am
    49    60    62   ar
    50    61    63   ar
    51    51    45   am
    52    30    31    1
    53    45    44    1
    54    42    41    2
    55    40    41    1
    56    40    39    1
    57    62    64   ar
    58    38    35    1
    59    39    36   am
    60    63    64   ar
    61    32    31    2
    62    34    35    1
    63    31    33   am
    64    35    36    1
    65    36    37    2
    66    44    47    1
    67    44    43    1
    68    47    48    1
    69    47    49    1
    70    48    50    1
