@<TRIPOS>MOLECULE
tmp/2o01A02.pdb
 98 96 0 0 0
SMALL
GASTEIGER

@<TRIPOS>ATOM
      1  N         80.9530   30.0500  -34.4070 N.3   253  PHE253     -0.1241
      2  CA        81.0410   29.1620  -33.2340 C.3   253  PHE253      0.1605
      3  C         81.3800   29.7970  -31.8820 C.2   253  PHE253      0.2264
      4  O         82.4820   29.6430  -31.3650 O.2   253  PHE253     -0.2867
      5  CB        82.0480   28.0330  -33.5190 C.3   253  PHE253      0.0534
      6  CG        81.4190   26.6690  -33.6310 C.ar  253  PHE253     -0.0203
      7  CD1       81.8020   25.7930  -34.6480 C.ar  253  PHE253     -0.0042
      8  CD2       80.4270   26.2640  -32.7180 C.ar  253  PHE253     -0.0042
      9  CE1       81.2140   24.5370  -34.7490 C.ar  253  PHE253     -0.0003
     10  CE2       79.8450   25.0290  -32.8100 C.ar  253  PHE253     -0.0003
     11  CZ        80.2410   24.1540  -33.8200 C.ar  253  PHE253     -0.0000
     12  N         73.3040   31.9200  -23.4730 N.3   264  LEU264     -0.1245
     13  CA        74.3140   31.5750  -24.4910 C.3   264  LEU264      0.1561
     14  C         73.8080   32.0460  -25.8480 C.2   264  LEU264      0.2260
     15  O         72.5990   32.1780  -26.0660 O.2   264  LEU264     -0.2867
     16  CB        74.8000   30.0950  -24.4820 C.3   264  LEU264      0.0270
     17  CG        74.1650   28.7880  -24.9960 C.3   264  LEU264      0.0019
     18  CD1       73.9140   28.7320  -26.4960 C.3   264  LEU264      0.0001
     19  CD2       75.1060   27.6620  -24.5900 C.3   264  LEU264      0.0001
     20  N         74.9670   32.4710  -31.9510 N.3   268  ASP268     -0.1225
     21  CA        75.4220   31.1020  -31.9790 C.3   268  ASP268      0.1805
     22  C         74.2520   30.1420  -32.1000 C.2   268  ASP268      0.2597
     23  O         74.1800   29.2230  -31.3020 O.2   268  ASP268     -0.2718
     24  CB        76.1160   30.8300  -30.6590 C.3   268  ASP268      0.1424
     25  CG        77.3190   29.9630  -30.7980 C.2   268  ASP268      0.3668
     26  OD1       78.0060   30.0240  -31.8420 O.co2 268  ASP268     -0.2456
     27  OD2       77.5910   29.2320  -29.8280 O.co2 268  ASP268     -0.2456
     28  N         73.3340   30.3630  -33.0620 N.am  269  ILE269     -0.1980
     29  CA        72.2010   29.4170  -33.3250 C.3   269  ILE269      0.1595
     30  C         71.5500   29.3500  -34.7190 C.2   269  ILE269      0.2287
     31  O         70.5500   28.6420  -34.8560 O.2   269  ILE269     -0.2864
     32  CB        71.0500   29.4640  -32.2530 C.3   269  ILE269      0.0276
     33  CG1       71.2610   28.3990  -31.1940 C.3   269  ILE269      0.0022
     34  CG2       69.6930   29.1350  -32.8530 C.3   269  ILE269      0.0022
     35  CD1       71.6140   28.9560  -29.8570 C.3   269  ILE269      0.0001
     36  N         73.9300   28.8750  -37.5280 N.3   271  HIS271     -0.1226
     37  CA        74.9560   27.9160  -37.8810 C.3   271  HIS271      0.1752
     38  C         74.6400   26.5210  -37.2700 C.2   271  HIS271      0.2596
     39  O         74.8780   25.4700  -37.9110 O.2   271  HIS271     -0.2718
     40  CB        76.3450   28.5400  -37.5900 C.3   271  HIS271      0.0759
     41  CG        77.2870   27.7070  -36.7690 C.ar  271  HIS271      0.0818
     42  ND1       78.4510   28.2350  -36.2470 N.ar  271  HIS271     -0.2268
     43  CD2       77.2460   26.4140  -36.3660 C.ar  271  HIS271      0.1154
     44  CE1       79.0860   27.3020  -35.5650 C.ar  271  HIS271      0.1986
     45  NE2       78.3740   26.1900  -35.6170 N.ar  271  HIS271     -0.2212
     46  N         74.0430   26.5220  -36.0680 N.am  272  HIS272     -0.1961
     47  CA        73.5300   25.2780  -35.4770 C.3   272  HIS272      0.1787
     48  C         72.2330   24.7580  -36.0990 C.2   272  HIS272      0.2620
     49  O         71.9380   23.5600  -35.9800 O.2   272  HIS272     -0.2715
     50  CB        73.3840   25.3210  -33.9510 C.3   272  HIS272      0.0785
     51  CG        73.4000   23.9510  -33.3330 C.ar  272  HIS272      0.0821
     52  ND1       74.5260   23.1490  -33.3350 N.ar  272  HIS272     -0.2267
     53  CD2       72.4210   23.2130  -32.7610 C.ar  272  HIS272      0.1154
     54  CE1       74.2490   21.9950  -32.7560 C.ar  272  HIS272      0.1986
     55  NE2       72.9780   22.0060  -32.4000 N.ar  272  HIS272     -0.2212
     56  N         71.4550   25.6250  -36.7520 N.am  273  HIS273     -0.1973
     57  CA        70.1210   25.1830  -37.1980 C.3   273  HIS273      0.1656
     58  C         69.7740   25.3360  -38.7000 C.2   273  HIS273      0.2291
     59  O         68.5990   25.3990  -39.0920 O.2   273  HIS273     -0.2864
     60  CB        69.0510   25.6640  -36.2070 C.3   273  HIS273      0.0771
     61  CG        69.4470   25.4380  -34.7780 C.ar  273  HIS273      0.0820
     62  ND1       70.2830   24.4090  -34.3900 N.ar  273  HIS273     -0.2267
     63  CD2       69.1380   26.1130  -33.6460 C.ar  273  HIS273      0.1154
     64  CE1       70.4700   24.4590  -33.0840 C.ar  273  HIS273      0.1986
     65  NE2       69.7870   25.4840  -32.6060 N.ar  273  HIS273     -0.2212
     66  N         72.7500   21.1170  -39.0500 N.3   276  ILE276     -0.1245
     67  CA        71.7340   20.2780  -38.4680 C.3   276  ILE276      0.1561
     68  C         70.4780   21.0540  -38.8230 C.2   276  ILE276      0.2260
     69  O         70.0380   21.9560  -38.0860 O.2   276  ILE276     -0.2867
     70  CB        71.8670   20.1100  -36.9480 C.3   276  ILE276      0.0252
     71  CG1       73.3330   19.7810  -36.5640 C.3   276  ILE276      0.0019
     72  CG2       70.8080   19.0850  -36.4430 C.3   276  ILE276      0.0019
     73  CD1       73.6800   19.9820  -35.0610 C.3   276  ILE276      0.0001
     74  N         71.2670   17.6150  -20.6650 N.3   345  HIS345     -0.1241
     75  CA        71.7640   18.6240  -21.6220 C.3   345  HIS345      0.1621
     76  C         71.3670   20.0820  -21.2780 C.2   345  HIS345      0.2264
     77  O         72.2220   20.9630  -21.2520 O.2   345  HIS345     -0.2867
     78  CB        71.2790   18.3060  -23.0430 C.3   345  HIS345      0.0745
     79  CG        72.3110   17.6910  -23.9290 C.ar  345  HIS345      0.0817
     80  ND1       72.6820   16.3680  -23.8290 N.ar  345  HIS345     -0.2268
     81  CD2       73.0150   18.2070  -24.9660 C.ar  345  HIS345      0.1154
     82  CE1       73.5960   16.1030  -24.7480 C.ar  345  HIS345      0.1986
     83  NE2       73.8130   17.2020  -25.4520 N.ar  345  HIS345     -0.2212
     84  N         73.8920   22.8570  -20.2130 N.3   349  MET349     -0.1245
     85  CA        74.5090   23.9910  -20.9140 C.3   349  MET349      0.1570
     86  C         73.6230   25.0520  -21.6390 C.2   349  MET349      0.2261
     87  O         73.7580   25.2830  -22.8330 O.2   349  MET349     -0.2867
     88  CB        75.7070   23.5240  -21.7450 C.3   349  MET349      0.0387
     89  CG        75.4340   22.5890  -22.8750 C.3   349  MET349      0.0595
     90  SD        76.9240   22.6410  -23.8540 S.3   349  MET349     -0.1393
     91  CE        76.9900   24.3810  -24.3780 C.3   349  MET349      0.0692
     92  N         70.1570   26.7870  -23.0710 N.3   351  PRO351     -0.2116
     93  CA        69.4130   27.5510  -24.1020 C.3   351  PRO351      0.1372
     94  C         68.7590   28.8720  -23.5960 C.2   351  PRO351      0.2244
     95  O         69.4010   29.5810  -22.8230 O.2   351  PRO351     -0.2868
     96  CB        68.3740   26.5290  -24.6150 C.3   351  PRO351      0.0268
     97  CG        68.9270   25.1930  -24.1800 C.3   351  PRO351      0.0207
     98  CD        69.4780   25.5140  -22.8050 C.3   351  PRO351      0.0892
@<TRIPOS>BOND
     1    59    58    2
     2    66    67    1
     3    68    67    1
     4    68    69    2
     5    58    57    1
     6    67    70    1
     7    39    38    2
     8    37    40    1
     9    37    36    1
    10    37    38    1
    11    40    41    1
    12    38    46   am
    13    57    56    1
    14    57    60    1
    15    70    71    1
    16    70    72    1
    17    41    43   ar
    18    41    42   ar
    19    56    48   am
    20    71    73    1
    21    43    45   ar
    22    42    44   ar
    23    60    61    1
    24    48    49    2
    25    48    47    1
    26    46    47    1
    27    45    44   ar
    28    47    50    1
    29    31    30    2
    30    61    62   ar
    31    61    63   ar
    32     9     7   ar
    33     9    11   ar
    34    30    29    1
    35     7     6   ar
    36     1     2    1
    37    62    64   ar
    38    50    51    1
    39    11    10   ar
    40    63    65   ar
    41     6     5    1
    42     6     8   ar
    43     5     2    1
    44    52    51   ar
    45    52    54   ar
    46    51    53   ar
    47    29    28    1
    48    29    32    1
    49     2     3    1
    50    64    65   ar
    51    28    22   am
    52    34    32    1
    53    10     8   ar
    54    53    55   ar
    55    54    55   ar
    56    32    33    1
    57    22    21    1
    58    22    23    2
    59    21    20    1
    60    21    24    1
    61     3     4    2
    62    26    25   ar
    63    33    35    1
    64    25    24    1
    65    25    27   ar
    66    18    17    1
    67    15    14    2
    68    14    13    1
    69    83    81   ar
    70    83    82   ar
    71    17    19    1
    72    17    16    1
    73    81    79   ar
    74    82    80   ar
    75    96    97    1
    76    96    93    1
    77    13    16    1
    78    13    12    1
    79    91    90    1
    80    97    98    1
    81    93    94    1
    82    93    92    1
    83    79    80   ar
    84    79    78    1
    85    90    89    1
    86    94    95    2
    87    92    98    1
    88    78    75    1
    89    89    88    1
    90    87    86    2
    91    88    85    1
    92    86    85    1
    93    75    76    1
    94    75    74    1
    95    76    77    2
    96    85    84    1
