@<TRIPOS>MOLECULE
tmp/2o01B07.pdb
 127 124 0 0 0
SMALL
GASTEIGER

@<TRIPOS>ATOM
      1  N         61.1730   -2.3570   46.7000 N.3   126  ILE126     -0.1245
      2  CA        61.1350   -3.5760   47.5300 C.3   126  ILE126      0.1561
      3  C         62.0190   -3.4670   48.7680 C.2   126  ILE126      0.2260
      4  O         61.5690   -3.7880   49.8740 O.2   126  ILE126     -0.2867
      5  CB        61.4580   -4.8970   46.7670 C.3   126  ILE126      0.0252
      6  CG1       61.2690   -6.1080   47.7000 C.3   126  ILE126      0.0019
      7  CG2       62.8850   -4.8800   46.1940 C.3   126  ILE126      0.0019
      8  CD1       60.4460   -7.2360   47.1400 C.3   126  ILE126      0.0001
      9  N         66.3990   -2.9230   48.8580 N.3   128  LEU128     -0.1245
     10  CA        67.8560   -2.6290   48.7860 C.3   128  LEU128      0.1561
     11  C         68.3910   -1.3660   48.0400 C.2   128  LEU128      0.2260
     12  O         67.8450   -0.9120   47.0040 O.2   128  LEU128     -0.2867
     13  CB        68.6660   -3.8850   48.3620 C.3   128  LEU128      0.0270
     14  CG        68.2150   -5.0450   47.4300 C.3   128  LEU128      0.0019
     15  CD1       68.1500   -6.3870   48.1690 C.3   128  LEU128      0.0001
     16  CD2       66.9280   -4.8040   46.5530 C.3   128  LEU128      0.0001
     17  N         72.5420   -7.4080   50.0240 N.3   133  ASP133     -0.1239
     18  CA        71.3110   -8.0250   49.5550 C.3   133  ASP133      0.1674
     19  C         71.2070   -8.0790   47.9790 C.2   133  ASP133      0.2266
     20  O         70.3080   -8.7750   47.5060 O.2   133  ASP133     -0.2867
     21  CB        70.1400   -7.3890   50.3290 C.3   133  ASP133      0.1410
     22  CG        70.5200   -7.2340   51.7690 C.2   133  ASP133      0.3668
     23  OD1       71.1210   -6.0990   52.0090 O.co2 133  ASP133     -0.2456
     24  OD2       70.3250   -8.1010   52.6170 O.co2 133  ASP133     -0.2456
     25  N         69.7980  -11.5040   44.6560 N.3   137  GLY137     -0.1225
     26  CA        68.6330  -11.6850   43.7890 C.3   137  GLY137      0.1811
     27  C         69.0620  -12.4650   42.5500 C.2   137  GLY137      0.2280
     28  O         68.2870  -13.2500   41.9990 O.2   137  GLY137     -0.2866
     29  N         69.4190  -15.7660   43.6760 N.3   140  PHE140     -0.1241
     30  CA        68.0480  -16.2090   43.9030 C.3   140  PHE140      0.1605
     31  C         67.3490  -16.5750   42.6140 C.2   140  PHE140      0.2264
     32  O         66.7590  -17.6480   42.5320 O.2   140  PHE140     -0.2867
     33  CB        67.1780  -15.2100   44.6900 C.3   140  PHE140      0.0534
     34  CG        65.6990  -15.6010   44.7570 C.ar  140  PHE140     -0.0203
     35  CD1       65.1850  -16.2190   45.8850 C.ar  140  PHE140     -0.0042
     36  CD2       64.8390  -15.3490   43.6740 C.ar  140  PHE140     -0.0042
     37  CE1       63.8270  -16.5830   45.9400 C.ar  140  PHE140     -0.0003
     38  CE2       63.4930  -15.7070   43.7170 C.ar  140  PHE140     -0.0003
     39  CZ        62.9800  -16.3260   44.8550 C.ar  140  PHE140     -0.0000
     40  N         50.7460  -15.3980   47.5260 N.3   185  SER185     -0.1217
     41  CA        51.8730  -14.7870   46.8210 C.3   185  SER185      0.1889
     42  C         52.1190  -13.3920   47.3430 C.2   185  SER185      0.2288
     43  O         53.2030  -13.1070   47.8820 O.2   185  SER185     -0.2866
     44  CB        51.6330  -14.7750   45.3050 C.3   185  SER185      0.2089
     45  OG        51.5020  -16.0920   44.7930 O.3   185  SER185     -0.2183
     46  N         53.0930  -12.2840   51.7940 N.3   188  ALA188     -0.1231
     47  CA        54.4820  -12.1580   52.1960 C.3   188  ALA188      0.1694
     48  C         55.0340  -11.0210   51.4000 C.2   188  ALA188      0.2592
     49  O         55.6640  -10.1210   51.9550 O.2   188  ALA188     -0.2718
     50  CB        55.2600  -13.4660   51.9360 C.3   188  ALA188      0.0304
     51  N         54.7730  -11.0560   50.1000 N.am  189  TRP189     -0.1976
     52  CA        55.0050   -9.8750   49.2950 C.3   189  TRP189      0.1640
     53  C         54.3210   -8.6580   49.9640 C.2   189  TRP189      0.2290
     54  O         54.9690   -7.6490   50.2940 O.2   189  TRP189     -0.2864
     55  CB        54.4580  -10.0320   47.8670 C.3   189  TRP189      0.0576
     56  CG        54.2280   -8.6830   47.3340 C.ar  189  TRP189      0.0006
     57  CD1       53.0270   -8.0520   47.1240 C.ar  189  TRP189      0.0946
     58  CD2       55.2420   -7.7260   47.0720 C.ar  189  TRP189      0.0152
     59  NE1       53.2440   -6.7690   46.6960 N.ar  189  TRP189     -0.2442
     60  CE2       54.6010   -6.5470   46.6540 C.ar  189  TRP189      0.0810
     61  CE3       56.6480   -7.7510   47.1460 C.ar  189  TRP189      0.0012
     62  CZ2       55.3270   -5.4020   46.2950 C.ar  189  TRP189      0.0191
     63  CZ3       57.3630   -6.6160   46.7770 C.ar  189  TRP189      0.0001
     64  CH2       56.7050   -5.4640   46.3560 C.ar  189  TRP189      0.0015
     65  N         56.1240   -7.9810   52.6800 N.3   192  HIS192     -0.1241
     66  CA        57.5050   -7.4890   52.4570 C.3   192  HIS192      0.1621
     67  C         57.4660   -6.0290   52.0630 C.2   192  HIS192      0.2264
     68  O         58.2780   -5.2190   52.5400 O.2   192  HIS192     -0.2867
     69  CB        58.2650   -8.2720   51.4000 C.3   192  HIS192      0.0745
     70  CG        59.7160   -7.8960   51.3180 C.ar  192  HIS192      0.0817
     71  ND1       60.7440   -8.8140   51.4330 N.ar  192  HIS192     -0.2268
     72  CD2       60.3080   -6.6910   51.1490 C.ar  192  HIS192      0.1154
     73  CE1       61.9020   -8.1890   51.3260 C.ar  192  HIS192      0.1986
     74  NE2       61.6660   -6.9020   51.1580 N.ar  192  HIS192     -0.2212
     75  N         57.1800   -5.3060   55.9480 N.3   195  HIS195     -0.1226
     76  CA        58.1690   -5.6040   57.0150 C.3   195  HIS195      0.1752
     77  C         59.6390   -5.6970   56.6220 C.2   195  HIS195      0.2595
     78  O         60.4960   -5.6980   57.4870 O.2   195  HIS195     -0.2718
     79  CB        57.7890   -6.8460   57.7780 C.3   195  HIS195      0.0759
     80  CG        57.1510   -7.8990   56.9370 C.ar  195  HIS195      0.0818
     81  ND1       57.8180   -8.5570   55.9350 N.ar  195  HIS195     -0.2268
     82  CD2       55.9040   -8.4260   56.9690 C.ar  195  HIS195      0.1154
     83  CE1       57.0040   -9.4320   55.3740 C.ar  195  HIS195      0.1986
     84  NE2       55.8350   -9.3710   55.9830 N.ar  195  HIS195     -0.2212
     85  N         59.9400   -5.7980   55.3330 N.am  196  VAL196     -0.1980
     86  CA        61.2950   -5.4820   54.8560 C.3   196  VAL196      0.1595
     87  C         61.2300   -4.4600   53.7000 C.2   196  VAL196      0.2287
     88  O         61.2050   -4.8210   52.5170 O.2   196  VAL196     -0.2864
     89  CB        62.1990   -6.7450   54.5620 C.3   196  VAL196      0.0276
     90  CG1       63.5760   -6.3400   54.0080 C.3   196  VAL196      0.0022
     91  CG2       62.3960   -7.5980   55.8260 C.3   196  VAL196      0.0022
     92  N         67.8230   -5.8830   56.9590 N.3   207  ARG207     -0.1231
     93  CA        68.4380   -7.0240   56.2800 C.3   207  ARG207      0.1694
     94  C         67.4520   -8.1900   56.0890 C.2   207  ARG207      0.2592
     95  O         66.2420   -7.9720   55.9930 O.2   207  ARG207     -0.2718
     96  CB        69.6820   -7.4870   57.0680 C.3   207  ARG207      0.0321
     97  CG        70.3290   -6.4210   57.9180 C.3   207  ARG207      0.0489
     98  CD        71.7050   -6.7930   58.4280 C.3   207  ARG207      0.2205
     99  NE        72.3940   -5.5700   58.8160 N.pl3 207  ARG207     -0.0865
    100  CZ        72.5260   -5.1190   60.0590 C.cat 207  ARG207      0.5346
    101  NH1       72.0560   -5.7950   61.0990 N.pl3 207  ARG207      0.1354
    102  NH2       73.1500   -3.9750   60.2590 N.pl3 207  ARG207      0.1354
    103  N         67.9840   -9.4040   55.9600 N.am  208  TRP208     -0.1976
    104  CA        67.3250  -10.5510   56.5460 C.3   208  TRP208      0.1640
    105  C         67.8740  -10.5750   57.9740 C.2   208  TRP208      0.2290
    106  O         67.3100   -9.8970   58.8390 O.2   208  TRP208     -0.2864
    107  CB        67.5790  -11.8530   55.7710 C.3   208  TRP208      0.0576
    108  CG        67.8330  -13.0360   56.6520 C.ar  208  TRP208      0.0006
    109  CD1       67.1530  -13.3850   57.8030 C.ar  208  TRP208      0.0946
    110  CD2       68.8600  -14.0210   56.4840 C.ar  208  TRP208      0.0152
    111  NE1       67.7000  -14.5210   58.3530 N.ar  208  TRP208     -0.2442
    112  CE2       68.7420  -14.9390   57.5630 C.ar  208  TRP208      0.0810
    113  CE3       69.8700  -14.2220   55.5300 C.ar  208  TRP208      0.0012
    114  CZ2       69.5950  -16.0480   57.7020 C.ar  208  TRP208      0.0191
    115  CZ3       70.7210  -15.3210   55.6750 C.ar  208  TRP208      0.0001
    116  CH2       70.5730  -16.2190   56.7550 C.ar  208  TRP208      0.0015
    117  N         65.8590  -10.5730   61.8750 N.3   211  PHE211     -0.1241
    118  CA        64.6030  -10.8380   61.1700 C.3   211  PHE211      0.1605
    119  C         63.3780  -11.0080   62.0540 C.2   211  PHE211      0.2264
    120  O         62.2520  -11.1570   61.5440 O.2   211  PHE211     -0.2867
    121  CB        64.7310  -12.0360   60.2180 C.3   211  PHE211      0.0534
    122  CG        63.5300  -12.2180   59.3310 C.ar  211  PHE211     -0.0203
    123  CD1       63.2710  -11.3060   58.2960 C.ar  211  PHE211     -0.0042
    124  CD2       62.6380  -13.2770   59.5440 C.ar  211  PHE211     -0.0042
    125  CE1       62.1440  -11.4530   57.4740 C.ar  211  PHE211     -0.0003
    126  CE2       61.5030  -13.4440   58.7250 C.ar  211  PHE211     -0.0003
    127  CZ        61.2500  -12.5320   57.6870 C.ar  211  PHE211     -0.0000
@<TRIPOS>BOND
     1    28    27    2
     2    32    31    2
     3    27    26    1
     4    31    30    1
     5    36    38   ar
     6    36    34   ar
     7    29    30    1
     8    38    39   ar
     9    26    25    1
    10    30    33    1
    11    33    34    1
    12    34    35   ar
    13    45    44    1
    14    39    37   ar
    15    44    41    1
    16    35    37   ar
    17     7     5    1
    18    62    64   ar
    19    62    60   ar
    20    64    63   ar
    21    16    14    1
    22    60    59   ar
    23    60    58   ar
    24    59    57   ar
    25     1     2    1
    26     5     2    1
    27     5     6    1
    28    63    61   ar
    29    41    42    1
    30    41    40    1
    31    12    11    2
    32    58    61   ar
    33    58    56   ar
    34    57    56   ar
    35     8     6    1
    36    56    55    1
    37    42    43    2
    38    14    15    1
    39    14    13    1
    40    20    19    2
    41     2     3    1
    42    55    52    1
    43    19    18    1
    44    11    10    1
    45    13    10    1
    46     3     4    2
    47    10     9    1
    48    52    53    1
    49    52    51    1
    50    18    17    1
    51    18    21    1
    52    53    54    2
    53    51    48   am
    54    21    22    1
    55    72    74   ar
    56    72    70   ar
    57    74    73   ar
    58    70    69    1
    59    70    71   ar
    60    73    71   ar
    61    48    49    2
    62    48    47    1
    63    69    66    1
    64    22    23   ar
    65    22    24   ar
    66    46    47    1
    67    50    47    1
    68    67    66    1
    69    67    68    2
    70    66    65    1
    71    88    87    2
    72    87    86    1
    73    90    89    1
    74    89    86    1
    75    89    91    1
    76    86    85    1
    77    85    77   am
    78    83    81   ar
    79    83    84   ar
    80   113   115   ar
    81   113   110   ar
    82   115   116   ar
    83   107   104    1
    84   107   108    1
    85    81    80   ar
    86    75    76    1
    87   103    94   am
    88   103   104    1
    89    84    82   ar
    90    95    94    2
    91    94    93    1
    92    93    92    1
    93    93    96    1
    94   110   108   ar
    95   110   112   ar
    96   104   105    1
    97    77    76    1
    98    77    78    2
    99   108   109   ar
   100   116   114   ar
   101    80    82   ar
   102    80    79    1
   103    76    79    1
   104    96    97    1
   105   125   127   ar
   106   125   123   ar
   107   112   114   ar
   108   112   111   ar
   109   127   126   ar
   110   109   111   ar
   111    97    98    1
   112   105   106    2
   113   123   122   ar
   114    98    99    1
   115   126   124   ar
   116    99   100    2
   117   122   124   ar
   118   122   121    1
   119   100   102    1
   120   100   101    1
   121   121   118    1
   122   118   117    1
   123   118   119    1
   124   120   119    2
