@<TRIPOS>MOLECULE
tmp/2o01A39.pdb
 157 155 0 0 0
SMALL
GASTEIGER

@<TRIPOS>ATOM
      1  N         46.4110   21.9530  -25.2510 N.3    62  TRP62      -0.1241
      2  CA        47.4140   22.4160  -24.3410 C.3    62  TRP62       0.1605
      3  C         47.8390   23.7590  -24.8780 C.2    62  TRP62       0.2264
      4  O         47.0220   24.6680  -25.0230 O.2    62  TRP62      -0.2867
      5  CB        48.6070   21.4810  -24.3680 C.3    62  TRP62       0.0550
      6  CG        49.4110   21.5320  -23.1730 C.ar   62  TRP62       0.0003
      7  CD1       48.9540   21.5280  -21.9110 C.ar   62  TRP62       0.0946
      8  CD2       50.8440   21.5530  -23.0930 C.ar   62  TRP62       0.0152
      9  NE1       49.9950   21.5580  -21.0350 N.ar   62  TRP62      -0.2442
     10  CE2       51.1750   21.5810  -21.7320 C.ar   62  TRP62       0.0810
     11  CE3       51.8890   21.5580  -24.0470 C.ar   62  TRP62       0.0012
     12  CZ2       52.5260   21.6130  -21.2740 C.ar   62  TRP62       0.0191
     13  CZ3       53.2430   21.5990  -23.5940 C.ar   62  TRP62       0.0001
     14  CH2       53.5360   21.6170  -22.2250 C.ar   62  TRP62       0.0015
     15  N         46.8420   27.5780  -23.9790 N.3    65  GLY65      -0.1210
     16  CA        46.4050   27.8480  -22.6150 C.3    65  GLY65       0.1948
     17  C         47.5770   28.6760  -22.1130 C.2    65  GLY65       0.2537
     18  O         47.4200   29.8140  -21.6540 O.2    65  GLY65      -0.2724
     19  N         48.7650   28.1160  -22.3270 N.am   66  MET66      -0.2348
     20  CA        49.9950   28.5010  -21.6460 C.3    66  MET66       0.1510
     21  C         50.5620   29.8200  -22.1900 C.2    66  MET66       0.2278
     22  O         51.6480   30.2840  -21.7770 O.2    66  MET66      -0.2864
     23  CB        50.9740   27.3200  -21.7170 C.3    66  MET66       0.0412
     24  CG        50.2470   25.9640  -21.6820 C.3    66  MET66       0.0686
     25  SD        48.6140   26.1050  -22.5130 S.3    66  MET66      -0.1013
     26  CE        47.4760   25.2230  -21.4080 C.3    66  MET66       0.0787
     27  N         46.8470   32.0370  -20.6380 N.3    69  HIS69      -0.1241
     28  CA        47.1720   32.1310  -19.2240 C.3    69  HIS69       0.1621
     29  C         48.6520   32.5250  -19.0730 C.2    69  HIS69       0.2264
     30  O         49.2790   32.3300  -18.0440 O.2    69  HIS69      -0.2867
     31  CB        46.7910   30.8340  -18.4830 C.3    69  HIS69       0.0745
     32  CG        45.3140   30.6190  -18.3700 C.ar   69  HIS69       0.0817
     33  ND1       44.5570   31.1890  -17.3730 N.ar   69  HIS69      -0.2268
     34  CD2       44.4560   29.9040  -19.1290 C.ar   69  HIS69       0.1154
     35  CE1       43.2950   30.8320  -17.5150 C.ar   69  HIS69       0.1986
     36  NE2       43.2070   30.0570  -18.5790 N.ar   69  HIS69      -0.2212
     37  N         51.9920   33.0770  -14.2450 N.3    90  ALA90      -0.1231
     38  CA        51.0390   32.7240  -15.3270 C.3    90  ALA90       0.1694
     39  C         49.6100   32.3450  -14.8580 C.2    90  ALA90       0.2591
     40  O         48.6940   32.1270  -15.6630 O.2    90  ALA90      -0.2718
     41  CB        51.6290   31.6000  -16.1880 C.3    90  ALA90       0.0304
     42  N         49.4190   32.2530  -13.5490 N.am   91  GLN91      -0.1979
     43  CA        48.0740   32.0460  -13.0260 C.3    91  GLN91       0.1601
     44  C         47.8090   32.9280  -11.8070 C.2    91  GLN91       0.2287
     45  O         48.6550   33.0310  -10.9080 O.2    91  GLN91      -0.2864
     46  CB        47.8560   30.5710  -12.7000 C.3    91  GLN91       0.0394
     47  CG        46.4260   30.1590  -12.4380 C.3    91  GLN91       0.0908
     48  CD        46.3530   28.7140  -12.0060 C.2    91  GLN91       0.2608
     49  OE1       47.2880   28.1900  -11.3690 O.2    91  GLN91      -0.2717
     50  NE2       45.2520   28.0470  -12.3570 N.am   91  GLN91      -0.0878
     51  N         46.9340   31.9800   -2.6030 N.3   102  LEU102     -0.1245
     52  CA        47.4990   31.0350   -3.5840 C.3   102  LEU102      0.1561
     53  C         48.0340   31.7450   -4.8160 C.2   102  LEU102      0.2260
     54  O         49.0680   31.3360   -5.3450 O.2   102  LEU102     -0.2867
     55  CB        46.4880   29.9640   -4.0070 C.3   102  LEU102      0.0270
     56  CG        46.3250   28.6980   -3.1630 C.3   102  LEU102      0.0019
     57  CD1       45.4110   27.7040   -3.8170 C.3   102  LEU102      0.0001
     58  CD2       47.6540   28.0880   -2.9030 C.3   102  LEU102      0.0001
     59  N         50.1710   33.2880   -8.2120 N.3   113  ILE113     -0.1231
     60  CA        51.0240   32.1530   -7.8970 C.3   113  ILE113      0.1692
     61  C         52.2440   32.1560   -8.8120 C.2   113  ILE113      0.2592
     62  O         52.0810   32.2140  -10.0500 O.2   113  ILE113     -0.2718
     63  CB        50.2490   30.8020   -7.9660 C.3   113  ILE113      0.0266
     64  CG1       51.2060   29.6170   -7.7140 C.3   113  ILE113      0.0019
     65  CG2       49.3860   30.6810   -9.2360 C.3   113  ILE113      0.0020
     66  CD1       51.9490   29.0480   -8.9280 C.3   113  ILE113      0.0001
     67  N         53.4480   32.1150   -8.2080 N.am  114  GLN114     -0.1966
     68  CA        54.7280   32.1500   -8.9700 C.3   114  GLN114      0.1733
     69  C         54.9780   30.8910   -9.7890 C.2   114  GLN114      0.2616
     70  O         54.4700   29.8180   -9.4650 O.2   114  GLN114     -0.2715
     71  CB        55.9480   32.4350   -8.0810 C.3   114  GLN114      0.0408
     72  CG        57.0680   33.1510   -8.8510 C.3   114  GLN114      0.0908
     73  CD        58.4610   32.6550   -8.5380 C.2   114  GLN114      0.2608
     74  OE1       59.4420   33.2740   -8.9290 O.2   114  GLN114     -0.2717
     75  NE2       58.5550   31.5300   -7.8510 N.am  114  GLN114     -0.0878
     76  N         55.7850   31.0190  -10.8340 N.am  115  ILE115     -0.1963
     77  CA        55.7910   29.9810  -11.8500 C.3   115  ILE115      0.1727
     78  C         57.1350   29.3090  -12.2120 C.2   115  ILE115      0.2617
     79  O         58.0900   29.9770  -12.6000 O.2   115  ILE115     -0.2715
     80  CB        54.9310   30.4170  -13.0830 C.3   115  ILE115      0.0290
     81  CG1       55.7640   31.0050  -14.2190 C.3   115  ILE115      0.0022
     82  CG2       53.8140   31.3520  -12.6200 C.3   115  ILE115      0.0023
     83  CD1       55.1690   30.7460  -15.5690 C.3   115  ILE115      0.0001
     84  N         57.1950   27.9840  -12.0670 N.am  116  THR116     -0.1937
     85  CA        58.4310   27.2510  -12.3620 C.3   116  THR116      0.2028
     86  C         58.3680   26.3980  -13.6360 C.2   116  THR116      0.2642
     87  O         57.4370   25.6230  -13.8440 O.2   116  THR116     -0.2714
     88  CB        58.9990   26.4690  -11.1320 C.3   116  THR116      0.1808
     89  OG1       58.1330   25.3840  -10.7560 O.3   116  THR116     -0.2208
     90  CG2       59.2070   27.4250   -9.9460 C.3   116  THR116      0.0379
     91  N         59.3970   26.5750  -14.4610 N.am  117  SER117     -0.1949
     92  CA        59.5050   26.1180  -15.8540 C.3   117  SER117      0.1924
     93  C         59.4730   27.3010  -16.8200 C.2   117  SER117      0.2314
     94  O         58.4030   27.8890  -17.0530 O.2   117  SER117     -0.2863
     95  CB        58.4510   25.0970  -16.2090 C.3   117  SER117      0.2116
     96  OG        58.5810   24.0040  -15.3340 O.3   117  SER117     -0.2180
     97  N         59.3780   29.3110  -20.0820 N.3   119  PHE119     -0.1241
     98  CA        58.2470   29.9880  -20.7550 C.3   119  PHE119      0.1605
     99  C         58.4720   31.5180  -20.8930 C.2   119  PHE119      0.2264
    100  O         58.6810   32.0180  -21.9960 O.2   119  PHE119     -0.2867
    101  CB        56.9100   29.6540  -20.0700 C.3   119  PHE119      0.0534
    102  CG        56.0230   28.7140  -20.8480 C.ar  119  PHE119     -0.0203
    103  CD1       56.5470   27.8050  -21.7590 C.ar  119  PHE119     -0.0042
    104  CD2       54.6420   28.7200  -20.6350 C.ar  119  PHE119     -0.0042
    105  CE1       55.6960   26.9160  -22.4720 C.ar  119  PHE119     -0.0003
    106  CE2       53.8000   27.8510  -21.3310 C.ar  119  PHE119     -0.0003
    107  CZ        54.3300   26.9410  -22.2510 C.ar  119  PHE119     -0.0000
    108  N         50.7360   25.4210   -0.7530 N.3   644  ALA644     -0.1231
    109  CA        50.2140   24.3940   -1.6320 C.3   644  ALA644      0.1694
    110  C         51.1800   23.2340   -1.4300 C.2   644  ALA644      0.2592
    111  O         50.8030   22.0750   -1.3090 O.2   644  ALA644     -0.2718
    112  CB        50.2150   24.8650   -3.0640 C.3   644  ALA644      0.0304
    113  N         52.4460   23.5730   -1.3420 N.am  645  TYR645     -0.1976
    114  CA        53.4540   22.5860   -1.0580 C.3   645  TYR645      0.1639
    115  C         53.4720   22.2420    0.4530 C.2   645  TYR645      0.2290
    116  O         54.0070   21.2040    0.8700 O.2   645  TYR645     -0.2864
    117  CB        54.7830   23.0700   -1.6320 C.3   645  TYR645      0.0560
    118  CG        54.5620   23.7250   -2.9920 C.ar  645  TYR645     -0.0198
    119  CD1       54.4540   25.1180   -3.1100 C.ar  645  TYR645     -0.0009
    120  CD2       54.3890   22.9600   -4.1510 C.ar  645  TYR645     -0.0009
    121  CE1       54.2190   25.7300   -4.3430 C.ar  645  TYR645      0.0417
    122  CE2       54.1480   23.5850   -5.3960 C.ar  645  TYR645      0.0417
    123  CZ        54.0720   24.9690   -5.4620 C.ar  645  TYR645      0.1957
    124  OH        53.8460   25.6140   -6.6290 O.3   645  TYR645     -0.2866
    125  N         50.1030   19.9560   -0.6610 N.3   648  PHE648     -0.1241
    126  CA        50.1800   18.7540   -1.5200 C.3   648  PHE648      0.1605
    127  C         50.6890   17.4510   -0.8850 C.2   648  PHE648      0.2264
    128  O         49.8780   16.5560   -0.5870 O.2   648  PHE648     -0.2867
    129  CB        50.9580   19.0490   -2.7950 C.3   648  PHE648      0.0534
    130  CG        50.1070   19.0820   -4.0070 C.ar  648  PHE648     -0.0203
    131  CD1       50.6460   18.7800   -5.2360 C.ar  648  PHE648     -0.0042
    132  CD2       48.7570   19.4000   -3.9110 C.ar  648  PHE648     -0.0042
    133  CE1       49.8590   18.8060   -6.3650 C.ar  648  PHE648     -0.0003
    134  CE2       47.9500   19.4230   -5.0300 C.ar  648  PHE648     -0.0003
    135  CZ        48.4950   19.1240   -6.2680 C.ar  648  PHE648     -0.0000
    136  N         57.7260   17.3070   -5.0370 N.3   717  TRP717     -0.1241
    137  CA        57.5100   18.3770   -5.9750 C.3   717  TRP717      0.1605
    138  C         56.5650   19.3070   -5.2420 C.2   717  TRP717      0.2264
    139  O         56.4680   20.5170   -5.5400 O.2   717  TRP717     -0.2867
    140  CB        56.9140   17.7700   -7.2290 C.3   717  TRP717      0.0550
    141  CG        56.1740   18.6200   -8.1350 C.ar  717  TRP717      0.0003
    142  CD1       56.5290   18.9280   -9.3940 C.ar  717  TRP717      0.0946
    143  CD2       54.8790   19.2020   -7.9170 C.ar  717  TRP717      0.0152
    144  NE1       55.5460   19.6920   -9.9880 N.ar  717  TRP717     -0.2442
    145  CE2       54.5280   19.8800   -9.0920 C.ar  717  TRP717      0.0810
    146  CE3       53.9920   19.2320   -6.8310 C.ar  717  TRP717      0.0012
    147  CZ2       53.3390   20.5940   -9.2140 C.ar  717  TRP717      0.0191
    148  CZ3       52.8100   19.9470   -6.9510 C.ar  717  TRP717      0.0001
    149  CH2       52.4910   20.6100   -8.1350 C.ar  717  TRP717      0.0015
    150  N         60.9950   22.5040   -4.6710 N.3   721  LEU721     -0.1245
    151  CA        60.1020   23.5530   -5.0560 C.3   721  LEU721      0.1561
    152  C         60.4530   24.5700   -4.0010 C.2   721  LEU721      0.2260
    153  O         61.6260   24.8780   -3.8270 O.2   721  LEU721     -0.2867
    154  CB        58.6560   23.0550   -4.9090 C.3   721  LEU721      0.0270
    155  CG        57.6080   23.8270   -5.6750 C.3   721  LEU721      0.0019
    156  CD1       57.2190   25.0430   -4.8700 C.3   721  LEU721      0.0001
    157  CD2       58.1200   24.2130   -7.0830 C.3   721  LEU721      0.0001
@<TRIPOS>BOND
     1     1     2    1
     2     4     3    2
     3     3     2    1
     4     5     2    1
     5     5     6    1
     6    11    13   ar
     7    11     8   ar
     8    15    16    1
     9    13    14   ar
    10     6     8   ar
    11     6     7   ar
    12     8    10   ar
    13    16    17    1
    14    25    19    1
    15    25    24    1
    16    25    26    1
    17   105   107   ar
    18   105   103   ar
    19    19    17   am
    20    19    20    1
    21   107   106   ar
    22    14    12   ar
    23    21    22    2
    24    21    20    1
    25    17    18    2
    26   100    99    2
    27     7     9   ar
    28   103   102   ar
    29    10    12   ar
    30    10     9   ar
    31    23    24    1
    32    23    20    1
    33   106   104   ar
    34    99    98    1
    35   102   104   ar
    36   102   101    1
    37    98    97    1
    38    98   101    1
    39    27    28    1
    40    28    29    1
    41    28    31    1
    42    34    36   ar
    43    34    32   ar
    44    29    30    2
    45    36    35   ar
    46    31    32    1
    47    32    33   ar
    48    35    33   ar
    49    94    93    2
    50    93    92    1
    51    95    92    1
    52    95    96    1
    53    41    38    1
    54    92    91    1
    55    40    39    2
    56    83    81    1
    57    38    39    1
    58    38    37    1
    59    39    42   am
    60    91    86   am
    61    81    80    1
    62    87    86    2
    63    86    85    1
    64    42    43    1
    65    80    82    1
    66    80    77    1
    67    43    46    1
    68    43    44    1
    69    46    47    1
    70    79    78    2
    71    47    48    1
    72    85    84    1
    73    85    88    1
    74    50    48   am
    75    78    84   am
    76    78    77    1
    77    48    49    2
    78    77    76    1
    79    44    45    2
    80    88    89    1
    81    88    90    1
    82    76    69   am
    83    62    61    2
    84   144   142   ar
    85   144   145   ar
    86    69    70    2
    87    69    68    1
    88   142   141   ar
    89    65    63    1
    90   147   145   ar
    91   147   149   ar
    92   145   143   ar
    93    68    67    1
    94    68    71    1
    95    74    73    2
    96    66    64    1
    97    72    73    1
    98    72    71    1
    99    61    67   am
   100    61    60    1
   101    73    75   am
   102    59    60    1
   103   141   143   ar
   104   141   140    1
   105   149   148   ar
   106    63    60    1
   107    63    64    1
   108   143   146   ar
   109   140   137    1
   110   157   155    1
   111   148   146   ar
   112   124   123    1
   113   133   135   ar
   114   133   131   ar
   115   135   134   ar
   116   137   138    1
   117   137   136    1
   118   155   154    1
   119   155   156    1
   120   139   138    2
   121   123   122   ar
   122   123   121   ar
   123   122   120   ar
   124    54    53    2
   125   131   130   ar
   126   151   154    1
   127   151   150    1
   128   151   152    1
   129   134   132   ar
   130    53    52    1
   131   121   119   ar
   132   120   118   ar
   133    55    52    1
   134    55    56    1
   135   130   132   ar
   136   130   129    1
   137   152   153    2
   138    57    56    1
   139    52    51    1
   140    56    58    1
   141   119   118   ar
   142   112   109    1
   143   118   117    1
   144   129   126    1
   145   117   114    1
   146   109   110    1
   147   109   108    1
   148   126   127    1
   149   126   125    1
   150   110   113   am
   151   110   111    2
   152   113   114    1
   153   114   115    1
   154   127   128    2
   155   115   116    2
