@<TRIPOS>MOLECULE
tmp/2o01B22.pdb
 142 139 0 0 0
SMALL
GASTEIGER

@<TRIPOS>ATOM
      1  N         56.9340  -24.8570   16.6000 N.3    28  HIS28      -0.1226
      2  CA        56.0660  -25.1210   17.7410 C.3    28  HIS28       0.1752
      3  C         54.6340  -25.3070   17.1990 C.2    28  HIS28       0.2596
      4  O         53.6700  -24.7320   17.7430 O.2    28  HIS28      -0.2718
      5  CB        56.0890  -23.9940   18.8000 C.3    28  HIS28       0.0759
      6  CG        57.4480  -23.6500   19.3460 C.ar   28  HIS28       0.0818
      7  ND1       57.6620  -22.5410   20.1410 N.ar   28  HIS28      -0.2268
      8  CD2       58.6530  -24.2590   19.2280 C.ar   28  HIS28       0.1154
      9  CE1       58.9340  -22.4790   20.4860 C.ar   28  HIS28       0.1986
     10  NE2       59.5570  -23.5130   19.9500 N.ar   28  HIS28      -0.2212
     11  N         54.4820  -26.0890   16.1240 N.am   29  ASP29      -0.1974
     12  CA        53.1310  -26.3420   15.5780 C.3    29  ASP29       0.1709
     13  C         52.5150  -27.6930   16.0050 C.2    29  ASP29       0.2293
     14  O         51.4350  -28.0890   15.5270 O.2    29  ASP29      -0.2864
     15  CB        53.1080  -26.2140   14.0590 C.3    29  ASP29       0.1436
     16  CG        51.7220  -25.8890   13.5130 C.2    29  ASP29       0.3671
     17  OD1       50.7130  -25.8480   14.2560 O.co2  29  ASP29      -0.2456
     18  OD2       51.6490  -25.6490   12.2980 O.co2  29  ASP29      -0.2456
     19  N         43.2030  -23.7720   22.9390 N.3   330  HIS330     -0.1241
     20  CA        42.9170  -22.4840   22.3630 C.3   330  HIS330      0.1621
     21  C         41.6410  -22.0480   23.0910 C.2   330  HIS330      0.2264
     22  O         40.6730  -22.8220   23.1410 O.2   330  HIS330     -0.2867
     23  CB        42.6900  -22.6160   20.8560 C.3   330  HIS330      0.0745
     24  CG        43.9240  -22.9860   20.0820 C.ar  330  HIS330      0.0817
     25  ND1       44.2250  -22.4410   18.8500 N.ar  330  HIS330     -0.2268
     26  CD2       44.9280  -23.8530   20.3600 C.ar  330  HIS330      0.1154
     27  CE1       45.3560  -22.9550   18.4020 C.ar  330  HIS330      0.1986
     28  NE2       45.8030  -23.8160   19.2990 N.ar  330  HIS330     -0.2212
     29  N         44.6770  -19.6760   25.4770 N.3   333  LEU333     -0.1245
     30  CA        45.4810  -19.0700   24.4420 C.3   333  LEU333      0.1561
     31  C         44.4160  -18.6090   23.4720 C.2   333  LEU333      0.2260
     32  O         44.6930  -18.1980   22.3780 O.2   333  LEU333     -0.2867
     33  CB        46.4780  -20.0570   23.8110 C.3   333  LEU333      0.0270
     34  CG        47.8660  -19.5770   23.3220 C.3   333  LEU333      0.0019
     35  CD1       47.8190  -18.2370   22.5760 C.3   333  LEU333      0.0001
     36  CD2       48.8870  -19.4560   24.4230 C.3   333  LEU333      0.0001
     37  N         44.0810  -16.3120   27.4240 N.3   336  ALA336     -0.1231
     38  CA        45.3130  -16.0300   28.1800 C.3   336  ALA336      0.1694
     39  C         46.4670  -15.5620   27.2470 C.2   336  ALA336      0.2591
     40  O         47.6590  -15.8850   27.4080 O.2   336  ALA336     -0.2718
     41  CB        45.6970  -17.2100   29.0540 C.3   336  ALA336      0.0304
     42  N         46.0260  -14.8560   26.2140 N.am  337  LEU337     -0.1980
     43  CA        46.5600  -13.5290   25.9470 C.3   337  LEU337      0.1596
     44  C         45.3640  -12.5770   25.9160 C.2   337  LEU337      0.2287
     45  O         45.4570  -11.4400   26.3690 O.2   337  LEU337     -0.2864
     46  CB        47.3740  -13.4580   24.6610 C.3   337  LEU337      0.0297
     47  CG        47.1260  -14.4270   23.5090 C.3   337  LEU337      0.0022
     48  CD1       45.6540  -14.8640   23.3170 C.3   337  LEU337      0.0001
     49  CD2       47.6710  -13.7910   22.2570 C.3   337  LEU337      0.0001
     50  N         50.9560   -6.7660   20.5750 N.3   380  PHE380     -0.1227
     51  CA        51.4040   -8.1600   20.3250 C.3   380  PHE380      0.1736
     52  C         50.9840   -9.3010   21.3400 C.2   380  PHE380      0.2595
     53  O         51.4890  -10.4680   21.3010 O.2   380  PHE380     -0.2718
     54  CB        52.9090   -8.1380   20.1020 C.3   380  PHE380      0.0547
     55  CG        53.2980   -7.6790   18.7430 C.ar  380  PHE380     -0.0202
     56  CD1       53.7710   -6.3860   18.5440 C.ar  380  PHE380     -0.0042
     57  CD2       53.2020   -8.5530   17.6450 C.ar  380  PHE380     -0.0042
     58  CE1       54.1470   -5.9580   17.2600 C.ar  380  PHE380     -0.0003
     59  CE2       53.5750   -8.1580   16.3600 C.ar  380  PHE380     -0.0003
     60  CZ        54.0470   -6.8520   16.1610 C.ar  380  PHE380     -0.0000
     61  N         50.0700   -8.9360   22.2460 N.am  381  ILE381     -0.1980
     62  CA        49.2960   -9.8890   23.0050 C.3   381  ILE381      0.1595
     63  C         47.8640   -9.5970   22.6350 C.2   381  ILE381      0.2287
     64  O         47.2250  -10.4360   22.0130 O.2   381  ILE381     -0.2864
     65  CB        49.5930   -9.8150   24.5040 C.3   381  ILE381      0.0276
     66  CG1       51.0650  -10.1790   24.7260 C.3   381  ILE381      0.0022
     67  CG2       48.7060  -10.7780   25.2820 C.3   381  ILE381      0.0022
     68  CD1       51.5330  -10.1410   26.1570 C.3   381  ILE381      0.0001
     69  N         46.5440   -8.1080   20.0370 N.3   383  THR383     -0.1203
     70  CA        46.4090   -8.7170   18.7130 C.3   383  THR383      0.1994
     71  C         46.7830  -10.1900   18.8590 C.2   383  THR383      0.2618
     72  O         46.9950  -10.6600   20.0030 O.2   383  THR383     -0.2717
     73  CB        47.2770   -8.0700   17.6070 C.3   383  THR383      0.1784
     74  OG1       46.8740   -8.6070   16.3390 O.3   383  THR383     -0.2211
     75  CG2       48.7760   -8.3450   17.8390 C.3   383  THR383      0.0376
     76  N         46.8610  -10.9010   17.7080 N.am  384  GLY384     -0.1956
     77  CA        47.1560  -12.3510   17.6440 C.3   384  GLY384      0.1869
     78  C         46.5950  -13.0270   18.8780 C.2   384  GLY384      0.2309
     79  O         47.2740  -13.7680   19.5660 O.2   384  GLY384     -0.2863
     80  N         43.5090  -14.5720   16.9110 N.3   387  ALA387     -0.1231
     81  CA        44.0070  -15.6190   16.0090 C.3   387  ALA387      0.1694
     82  C         43.6580  -16.9420   16.6280 C.2   387  ALA387      0.2592
     83  O         42.8290  -17.6690   16.0770 O.2   387  ALA387     -0.2718
     84  CB        45.4840  -15.5420   15.8140 C.3   387  ALA387      0.0304
     85  N         44.2520  -17.2650   17.7770 N.am  388  HIS388     -0.1976
     86  CA        43.7440  -18.4020   18.5000 C.3   388  HIS388      0.1656
     87  C         42.3100  -18.1290   18.8850 C.2   388  HIS388      0.2291
     88  O         41.9700  -18.1890   20.0680 O.2   388  HIS388     -0.2864
     89  CB        44.5220  -18.6590   19.7430 C.3   388  HIS388      0.0771
     90  CG        45.9570  -18.9570   19.5040 C.ar  388  HIS388      0.0820
     91  ND1       46.4730  -19.1770   18.2470 N.ar  388  HIS388     -0.2267
     92  CD2       46.9860  -19.1060   20.3720 C.ar  388  HIS388      0.1154
     93  CE1       47.7670  -19.4250   18.3540 C.ar  388  HIS388      0.1986
     94  NE2       48.1040  -19.3890   19.6330 N.ar  388  HIS388     -0.2212
     95  N         39.4320  -25.8980   13.6600 N.3   395  ARG395     -0.1245
     96  CA        40.5440  -26.5900   14.3340 C.3   395  ARG395      0.1563
     97  C         40.4090  -26.5560   15.8780 C.2   395  ARG395      0.2260
     98  O         41.3840  -26.3330   16.6050 O.2   395  ARG395     -0.2867
     99  CB        41.8690  -26.0160   13.8320 C.3   395  ARG395      0.0307
    100  CG        43.0920  -26.6950   14.2590 C.3   395  ARG395      0.0489
    101  CD        44.2400  -26.0080   13.5750 C.3   395  ARG395      0.2205
    102  NE        45.3380  -25.7790   14.5040 N.pl3 395  ARG395     -0.0865
    103  CZ        46.5990  -26.1260   14.2790 C.cat 395  ARG395      0.5346
    104  NH1       46.9530  -26.7180   13.1270 N.pl3 395  ARG395      0.1354
    105  NH2       47.5080  -25.8640   15.2030 N.pl3 395  ARG395      0.1354
    106  N         44.1110  -22.8450    8.5470 N.3   554  TYR554     -0.1241
    107  CA        44.2560  -21.4730    8.9940 C.3   554  TYR554      0.1605
    108  C         45.3980  -20.8570    8.2020 C.2   554  TYR554      0.2264
    109  O         45.3960  -19.6430    7.9140 O.2   554  TYR554     -0.2867
    110  CB        44.5220  -21.4170   10.5260 C.3   554  TYR554      0.0534
    111  CG        44.7170  -20.0250   11.1550 C.ar  554  TYR554     -0.0201
    112  CD1       43.6420  -19.1560   11.3400 C.ar  554  TYR554     -0.0009
    113  CD2       45.9780  -19.6010   11.6000 C.ar  554  TYR554     -0.0009
    114  CE1       43.8220  -17.8980   11.9270 C.ar  554  TYR554      0.0417
    115  CE2       46.1670  -18.3300   12.1810 C.ar  554  TYR554      0.0417
    116  CZ        45.0860  -17.4860   12.3480 C.ar  554  TYR554      0.1957
    117  OH        45.2580  -16.2360   12.9190 O.3   554  TYR554     -0.2866
    118  N         45.0020  -16.8180    8.7420 N.3   572  TRP572     -0.1241
    119  CA        46.2980  -16.3320    9.1560 C.3   572  TRP572      0.1605
    120  C         46.5910  -14.9930    8.4690 C.2   572  TRP572      0.2264
    121  O         46.8750  -13.9780    9.1210 O.2   572  TRP572     -0.2867
    122  CB        47.3910  -17.3560    8.8480 C.3   572  TRP572      0.0550
    123  CG        48.7620  -16.7180    8.8620 C.ar  572  TRP572      0.0003
    124  CD1       49.5710  -16.5270    9.9480 C.ar  572  TRP572      0.0946
    125  CD2       49.4550  -16.1570    7.7480 C.ar  572  TRP572      0.0152
    126  NE1       50.7220  -15.8980    9.5720 N.ar  572  TRP572     -0.2442
    127  CE2       50.6820  -15.6650    8.2280 C.ar  572  TRP572      0.0810
    128  CE3       49.1630  -16.0380    6.3860 C.ar  572  TRP572      0.0012
    129  CZ2       51.6150  -15.0540    7.4070 C.ar  572  TRP572      0.0191
    130  CZ3       50.0850  -15.4080    5.5650 C.ar  572  TRP572      0.0001
    131  CH2       51.3020  -14.9270    6.0820 C.ar  572  TRP572      0.0015
    132  N         45.1330  -12.1970    9.9590 N.3   575  PHE575     -0.1241
    133  CA        45.8990  -11.7640   11.1340 C.3   575  PHE575      0.1605
    134  C         46.9960  -10.9280   10.5180 C.2   575  PHE575      0.2264
    135  O         47.4350   -9.8980   11.0640 O.2   575  PHE575     -0.2867
    136  CB        46.4930  -12.9330   11.9140 C.3   575  PHE575      0.0534
    137  CG        47.7980  -12.6110   12.5530 C.ar  575  PHE575     -0.0203
    138  CD1       47.8470  -12.2420   13.8780 C.ar  575  PHE575     -0.0042
    139  CD2       48.9910  -12.6620   11.8120 C.ar  575  PHE575     -0.0042
    140  CE1       49.0770  -11.9420   14.4810 C.ar  575  PHE575     -0.0003
    141  CE2       50.2160  -12.3430   12.3800 C.ar  575  PHE575     -0.0003
    142  CZ        50.2690  -11.9870   13.7190 C.ar  575  PHE575     -0.0000
@<TRIPOS>BOND
     1   130   131   ar
     2   130   128   ar
     3   131   129   ar
     4   128   125   ar
     5   129   127   ar
     6   125   127   ar
     7   125   123   ar
     8   109   108    2
     9   108   107    1
    10   127   126   ar
    11   120   121    2
    12   120   119    1
    13   106   107    1
    14   118   119    1
    15   122   123    1
    16   122   119    1
    17   123   124   ar
    18   107   110    1
    19   126   124   ar
    20   132   133    1
    21   134   135    2
    22   134   133    1
    23   110   111    1
    24   133   136    1
    25   111   112   ar
    26   111   113   ar
    27   112   114   ar
    28   113   115   ar
    29   139   141   ar
    30   139   137   ar
    31   136   137    1
    32   114   116   ar
    33   115   116   ar
    34    18    16   ar
    35   116   117    1
    36   141   142   ar
    37   137   138   ar
    38   104   103    1
    39    16    15    1
    40    16    17   ar
    41   101   100    1
    42   101   102    1
    43    95    96    1
    44   142   140   ar
    45    99   100    1
    46    99    96    1
    47   138   140   ar
    48    15    12    1
    49   103   102    2
    50   103   105    1
    51    96    97    1
    52    14    13    2
    53    12    13    1
    54    12    11    1
    55    84    81    1
    56    97    98    2
    57    81    82    1
    58    81    80    1
    59    83    82    2
    60    11     3   am
    61    60    59   ar
    62    60    58   ar
    63    74    73    1
    64    59    57   ar
    65     1     2    1
    66    82    85   am
    67     3     2    1
    68     3     4    2
    69    58    56   ar
    70    73    75    1
    71    73    70    1
    72    77    76    1
    73    77    78    1
    74    57    55   ar
    75    76    71   am
    76     2     5    1
    77    85    86    1
    78    91    93   ar
    79    91    90   ar
    80    93    94   ar
    81    27    25   ar
    82    27    28   ar
    83    86    87    1
    84    86    89    1
    85    56    55   ar
    86    70    71    1
    87    70    69    1
    88    55    54    1
    89     5     6    1
    90    25    24   ar
    91    71    72    2
    92    78    79    2
    93    87    88    2
    94     8     6   ar
    95     8    10   ar
    96    28    26   ar
    97     6     7   ar
    98    90    89    1
    99    90    92   ar
   100    94    92   ar
   101    10     9   ar
   102    24    26   ar
   103    24    23    1
   104    54    51    1
   105     7     9   ar
   106    51    50    1
   107    51    52    1
   108    23    20    1
   109    53    52    2
   110    52    61   am
   111    64    63    2
   112    61    62    1
   113    49    47    1
   114    20    19    1
   115    20    21    1
   116    32    31    2
   117    35    34    1
   118    63    62    1
   119    62    65    1
   120    21    22    2
   121    48    47    1
   122    34    33    1
   123    34    36    1
   124    31    30    1
   125    47    46    1
   126    33    30    1
   127    30    29    1
   128    65    66    1
   129    65    67    1
   130    46    43    1
   131    66    68    1
   132    44    43    1
   133    44    45    2
   134    43    42    1
   135    42    39   am
   136    39    40    2
   137    39    38    1
   138    37    38    1
   139    38    41    1
