@<TRIPOS>MOLECULE
tmp/2o01Q11.pdb
 111 109 0 0 0
SMALL
GASTEIGER

@<TRIPOS>ATOM
      1  N         -3.9180    8.0750    7.5220 N.3     7  PHE7       -0.1241
      2  CA        -3.9820    8.9890    8.6390 C.3     7  PHE7        0.1605
      3  C         -5.1490    9.9360    8.8220 C.2     7  PHE7        0.2264
      4  O         -5.4660   10.2280    9.9570 O.2     7  PHE7       -0.2867
      5  CB        -2.6160    9.5690    8.9960 C.3     7  PHE7        0.0534
      6  CG        -1.9070    8.7590   10.0570 C.ar    7  PHE7       -0.0203
      7  CD1       -2.6310    7.8470   10.8440 C.ar    7  PHE7       -0.0042
      8  CD2       -0.5460    8.9100   10.3020 C.ar    7  PHE7       -0.0042
      9  CE1       -2.0100    7.0920   11.8420 C.ar    7  PHE7       -0.0003
     10  CE2        0.0850    8.1490   11.3100 C.ar    7  PHE7       -0.0003
     11  CZ        -0.6550    7.2410   12.0730 C.ar    7  PHE7       -0.0000
     12  N         -5.4540   11.4480   12.1170 N.3    10  ALA10      -0.1245
     13  CA        -4.1950   12.0480   12.5660 C.3    10  ALA10       0.1562
     14  C         -4.0890   13.5070   12.1460 C.2    10  ALA10       0.2260
     15  O         -3.9320   14.4000   12.9800 O.2    10  ALA10      -0.2867
     16  CB        -3.0080   11.2660   12.0670 C.3    10  ALA10       0.0290
     17  N         -7.5510   15.0630   13.5160 N.3    13  VAL13      -0.1231
     18  CA        -7.1160   15.4060   14.8840 C.3    13  VAL13       0.1692
     19  C         -6.3830   16.7400   14.8220 C.2    13  VAL13       0.2592
     20  O         -6.7540   17.6900   15.5280 O.2    13  VAL13      -0.2718
     21  CB        -6.1820   14.3050   15.5140 C.3    13  VAL13       0.0266
     22  CG1       -5.3560   14.8590   16.6370 C.3    13  VAL13       0.0020
     23  CG2       -6.9810   13.1160   16.0120 C.3    13  VAL13       0.0020
     24  N         -5.3740   16.7990   13.9410 N.am   14  ASN14      -0.1974
     25  CA        -4.5070   17.9790   13.7900 C.3    14  ASN14       0.1688
     26  C         -5.3260   19.2240   13.4610 C.2    14  ASN14       0.2292
     27  O         -5.2020   20.2590   14.1230 O.2    14  ASN14      -0.2864
     28  CB        -3.4210   17.7410   12.7220 C.3    14  ASN14       0.1181
     29  CG        -2.0170   18.0760   13.2200 C.2    14  ASN14       0.2629
     30  OD1       -1.8440   18.8760   14.1490 O.2    14  ASN14      -0.2716
     31  ND2       -1.0080   17.4560   12.6090 N.am   14  ASN14      -0.0877
     32  N         -7.5440   20.3200   16.5030 N.3    17  TRP17      -0.1241
     33  CA        -6.6950   21.1450   17.3690 C.3    17  TRP17       0.1605
     34  C         -6.2260   22.4230   16.6590 C.2    17  TRP17       0.2264
     35  O         -5.6170   23.2930   17.2830 O.2    17  TRP17      -0.2867
     36  CB        -5.5040   20.3240   17.9150 C.3    17  TRP17       0.0550
     37  CG        -5.7070   19.7500   19.3340 C.ar   17  TRP17       0.0003
     38  CD1       -6.8940   19.3390   19.8960 C.ar   17  TRP17       0.0946
     39  CD2       -4.6940   19.5160   20.3430 C.ar   17  TRP17       0.0152
     40  NE1       -6.6830   18.8750   21.1810 N.ar   17  TRP17      -0.2442
     41  CE2       -5.3500   18.9730   21.4810 C.ar   17  TRP17       0.0810
     42  CE3       -3.3050   19.7180   20.3990 C.ar   17  TRP17       0.0012
     43  CZ2       -4.6640   18.6300   22.6540 C.ar   17  TRP17       0.0191
     44  CZ3       -2.6220   19.3710   21.5750 C.ar   17  TRP17       0.0001
     45  CH2       -3.3060   18.8340   22.6820 C.ar   17  TRP17       0.0015
     46  N         -4.4610   14.9860   31.4130 N.3    65  SER65      -0.1202
     47  CA        -4.6700   15.0450   29.9620 C.3    65  SER65       0.2020
     48  C         -4.5050   13.6770   29.3110 C.2    65  SER65       0.2618
     49  O         -5.2880   13.2830   28.4590 O.2    65  SER65      -0.2717
     50  CB        -3.6280   15.9750   29.3600 C.3    65  SER65       0.2103
     51  OG        -2.3300   15.5350   29.7410 O.3    65  SER65      -0.2182
     52  N         -3.4530   12.9780   29.7430 N.am   66  HIS66      -0.1975
     53  CA        -3.0050   11.7060   29.1730 C.3    66  HIS66       0.1656
     54  C         -4.1080   10.6650   29.0370 C.2    66  HIS66       0.2291
     55  O         -4.3130   10.1380   27.9360 O.2    66  HIS66      -0.2864
     56  CB        -1.8380   11.1320   29.9820 C.3    66  HIS66       0.0771
     57  CG        -1.2810    9.8600   29.4230 C.ar   66  HIS66       0.0820
     58  ND1       -2.0730    8.8910   28.8450 N.ar   66  HIS66      -0.2267
     59  CD2       -0.0130    9.3830   29.3800 C.ar   66  HIS66       0.1154
     60  CE1       -1.3150    7.8860   28.4500 C.ar   66  HIS66       0.1986
     61  NE2       -0.0620    8.1580   28.7630 N.ar   66  HIS66      -0.2212
     62  N         -6.4420   11.4240   26.4300 N.3    69  GLU69      -0.1231
     63  CA        -6.0260   11.2150   25.0750 C.3    69  GLU69       0.1699
     64  C         -5.7530    9.7600   24.7880 C.2    69  GLU69       0.2592
     65  O         -5.9640    9.3030   23.6690 O.2    69  GLU69      -0.2718
     66  CB        -4.8630   12.1200   24.6790 C.3    69  GLU69       0.0402
     67  CG        -5.3450   13.4110   24.0050 C.3    69  GLU69       0.1161
     68  CD        -4.3840   13.9490   22.9510 C.2    69  GLU69       0.3649
     69  OE1       -4.2380   13.3140   21.8770 O.co2  69  GLU69      -0.2457
     70  OE2       -3.7980   15.0280   23.2030 O.co2  69  GLU69      -0.2457
     71  N         -5.3200    9.0000   25.7820 N.am   70  ILE70      -0.1980
     72  CA        -5.1240    7.5790   25.5240 C.3    70  ILE70       0.1595
     73  C         -6.4180    6.8480   25.2080 C.2    70  ILE70       0.2287
     74  O         -6.3980    5.9370   24.3760 O.2    70  ILE70      -0.2864
     75  CB        -4.3320    6.8760   26.6190 C.3    70  ILE70       0.0276
     76  CG1       -2.8580    6.8990   26.2400 C.3    70  ILE70       0.0022
     77  CG2       -4.8250    5.4160   26.8290 C.3    70  ILE70       0.0022
     78  CD1       -2.5980    6.6670   24.7770 C.3    70  ILE70       0.0001
     79  N         -8.8910    7.8270   23.4270 N.3    72  ARG72      -0.1231
     80  CA        -9.0180    7.9300   21.9580 C.3    72  ARG72       0.1694
     81  C         -8.0980    6.9640   21.1970 C.2    72  ARG72       0.2592
     82  O         -8.5730    6.1620   20.4100 O.2    72  ARG72      -0.2718
     83  CB        -8.8340    9.3750   21.4780 C.3    72  ARG72       0.0321
     84  CG        -7.8300   10.1970   22.2800 C.3    72  ARG72       0.0489
     85  CD        -6.5360   10.4960   21.5120 C.3    72  ARG72       0.2205
     86  NE        -6.4340   11.9130   21.1780 N.pl3  72  ARG72      -0.0865
     87  CZ        -6.8230   12.4330   20.0170 C.cat  72  ARG72       0.5346
     88  NH1       -7.3270   11.6510   19.0650 N.pl3  72  ARG72       0.1354
     89  NH2       -6.7020   13.7330   19.7980 N.pl3  72  ARG72       0.1354
     90  N         -6.7930    7.0560   21.4500 N.am   73  TRP73      -0.1976
     91  CA        -5.7730    6.1470   20.8990 C.3    73  TRP73       0.1640
     92  C         -6.2610    4.7240   20.9170 C.2    73  TRP73       0.2290
     93  O         -6.5320    4.1620   19.8660 O.2    73  TRP73      -0.2864
     94  CB        -4.4870    6.2610   21.7210 C.3    73  TRP73       0.0576
     95  CG        -3.3010    5.3990   21.3160 C.ar   73  TRP73       0.0006
     96  CD1       -2.4710    5.5980   20.2520 C.ar   73  TRP73       0.0946
     97  CD2       -2.7680    4.2630   22.0340 C.ar   73  TRP73       0.0152
     98  NE1       -1.4770    4.6460   20.2390 N.ar   73  TRP73      -0.2442
     99  CE2       -1.6350    3.8180   21.3240 C.ar   73  TRP73       0.0810
    100  CE3       -3.1480    3.5700   23.2010 C.ar   73  TRP73       0.0012
    101  CZ2       -0.8780    2.7030   21.7430 C.ar   73  TRP73       0.0191
    102  CZ3       -2.3950    2.4670   23.6090 C.ar   73  TRP73       0.0001
    103  CH2       -1.2780    2.0490   22.8850 C.ar   73  TRP73       0.0015
    104  N         -9.2080    4.5090   18.8090 N.3    76  ILE76      -0.1245
    105  CA        -8.8270    4.2360   17.4250 C.3    76  ILE76       0.1561
    106  C         -8.4570    2.7290   17.3710 C.2    76  ILE76       0.2260
    107  O         -9.3610    1.9120   17.2240 O.2    76  ILE76      -0.2867
    108  CB        -7.7140    5.1890   16.8640 C.3    76  ILE76       0.0252
    109  CG1       -8.0210    6.6590   17.1810 C.3    76  ILE76       0.0019
    110  CG2       -7.5710    5.0150   15.3520 C.3    76  ILE76       0.0019
    111  CD1       -6.7880    7.5250   17.3690 C.3    76  ILE76       0.0001
@<TRIPOS>BOND
     1     1     2    1
     2     2     3    1
     3     2     5    1
     4     3     4    2
     5     5     6    1
     6     6     8   ar
     7     6     7   ar
     8     8    10   ar
     9     7     9   ar
    10    10    11   ar
    11     9    11   ar
    12    16    13    1
    13    12    13    1
    14    14    13    1
    15    14    15    2
    16    31    29   am
    17    28    29    1
    18    28    25    1
    19    29    30    2
    20    26    25    1
    21    26    27    2
    22    17    18    1
    23    25    24    1
    24    24    19   am
    25    19    18    1
    26    19    20    2
    27    18    21    1
    28   110   108    1
    29    21    23    1
    30    21    22    1
    31    32    33    1
    32    34    35    2
    33    34    33    1
    34   108   109    1
    35   108   105    1
    36   109   111    1
    37   107   106    2
    38    33    36    1
    39   106   105    1
    40   105   104    1
    41    36    37    1
    42    88    87    1
    43    37    38   ar
    44    37    39   ar
    45    89    87    1
    46    93    92    2
    47    38    40   ar
    48    87    86    2
    49    98    96   ar
    50    98    99   ar
    51    96    95   ar
    52    39    42   ar
    53    39    41   ar
    54    42    44   ar
    55    82    81    2
    56    91    92    1
    57    91    90    1
    58    91    94    1
    59    86    85    1
    60    40    41   ar
    61    81    90   am
    62    81    80    1
    63    95    94    1
    64    95    97   ar
    65    99   101   ar
    66    99    97   ar
    67    83    80    1
    68    83    84    1
    69    41    43   ar
    70    85    84    1
    71    44    45   ar
    72   101   103   ar
    73    69    68   ar
    74    80    79    1
    75    97   100   ar
    76    43    45   ar
    77   103   102   ar
    78    68    70   ar
    79    68    67    1
    80   100   102   ar
    81    65    64    2
    82    67    66    1
    83    74    73    2
    84    66    63    1
    85    78    76    1
    86    64    63    1
    87    64    71   am
    88    63    62    1
    89    73    72    1
    90    72    71    1
    91    72    75    1
    92    76    75    1
    93    75    77    1
    94    55    54    2
    95    60    61   ar
    96    60    58   ar
    97    49    48    2
    98    61    59   ar
    99    58    57   ar
   100    54    53    1
   101    53    52    1
   102    53    56    1
   103    48    52   am
   104    48    47    1
   105    50    51    1
   106    50    47    1
   107    59    57   ar
   108    57    56    1
   109    47    46    1
