@<TRIPOS>MOLECULE
tmp/2o01B46.pdb
 190 186 0 0 0
SMALL
GASTEIGER

@<TRIPOS>ATOM
      1  N         35.8740    7.2370    9.7720 N.3   429  GLY429     -0.1225
      2  CA        36.4520    7.1680    8.4350 C.3   429  GLY429      0.1811
      3  C         36.5160    8.5400    7.7910 C.2   429  GLY429      0.2280
      4  O         37.6070    9.0830    7.5910 O.2   429  GLY429     -0.2866
      5  N         38.0420   12.9990   10.7190 N.3   433  LEU433     -0.1245
      6  CA        39.0130   12.9800    9.6550 C.3   433  LEU433      0.1561
      7  C         38.6240   13.8190    8.4340 C.2   433  LEU433      0.2260
      8  O         39.4710   14.0610    7.5690 O.2   433  LEU433     -0.2867
      9  CB        39.3350   11.5380    9.2720 C.3   433  LEU433      0.0270
     10  CG        40.8570   11.4760    9.1430 C.3   433  LEU433      0.0019
     11  CD1       41.5390   10.5430   10.1780 C.3   433  LEU433      0.0001
     12  CD2       41.2510   11.2050    7.6860 C.3   433  LEU433      0.0001
     13  N         40.5480   17.9510    8.2960 N.3   437  VAL437     -0.1245
     14  CA        41.3730   18.4110    7.1350 C.3   437  VAL437      0.1561
     15  C         41.3250   19.9430    6.7640 C.2   437  VAL437      0.2260
     16  O         42.3110   20.4710    6.2670 O.2   437  VAL437     -0.2867
     17  CB        41.2460   17.4340    5.8830 C.3   437  VAL437      0.0252
     18  CG1       40.4070   18.0240    4.7800 C.3   437  VAL437      0.0019
     19  CG2       42.6050   17.0590    5.3420 C.3   437  VAL437      0.0019
     20  N         43.7130   21.9150    8.4630 N.3   440  ASP440     -0.1225
     21  CA        44.8610   21.5980    7.5930 C.3   440  ASP440      0.1805
     22  C         44.6790   22.2430    6.2070 C.2   440  ASP440      0.2597
     23  O         45.6530   22.4510    5.4720 O.2   440  ASP440     -0.2718
     24  CB        45.1240   20.0910    7.4580 C.3   440  ASP440      0.1424
     25  CG        46.3200   19.6390    8.2730 C.2   440  ASP440      0.3668
     26  OD1       46.1720   18.7120    9.0900 O.co2 440  ASP440     -0.2456
     27  OD2       47.4190   20.2180    8.1170 O.co2 440  ASP440     -0.2456
     28  N         43.4310   22.5350    5.8420 N.am  441  VAL441     -0.1980
     29  CA        43.1750   23.4630    4.7540 C.3   441  VAL441      0.1595
     30  C         43.4820   24.8410    5.3390 C.2   441  VAL441      0.2287
     31  O         44.6340   25.2490    5.3280 O.2   441  VAL441     -0.2864
     32  CB        41.7370   23.3250    4.1930 C.3   441  VAL441      0.0276
     33  CG1       41.4610   24.3420    3.0870 C.3   441  VAL441      0.0022
     34  CG2       41.5120   21.9090    3.6600 C.3   441  VAL441      0.0022
     35  N         38.7700    5.1500   16.1740 N.3   524  LEU524     -0.1245
     36  CA        38.6750    4.6240   14.8330 C.3   524  LEU524      0.1561
     37  C         39.4720    3.3360   14.8800 C.2   524  LEU524      0.2260
     38  O         38.8840    2.2470   14.8700 O.2   524  LEU524     -0.2867
     39  CB        39.2550    5.5750   13.7970 C.3   524  LEU524      0.0270
     40  CG        40.1430    4.9650   12.6700 C.3   524  LEU524      0.0019
     41  CD1       39.5170    3.7350   11.9330 C.3   524  LEU524      0.0001
     42  CD2       40.6760    6.0120   11.6450 C.3   524  LEU524      0.0001
     43  N         38.6330   -1.5480   13.2820 N.3   528  THR528     -0.1218
     44  CA        39.1120   -1.5610   11.9190 C.3   528  THR528      0.1862
     45  C         40.5020   -2.1170   12.0740 C.2   528  THR528      0.2287
     46  O         41.3420   -2.0420   11.1900 O.2   528  THR528     -0.2866
     47  CB        39.1700   -0.1060   11.3190 C.3   528  THR528      0.1770
     48  OG1       38.1420    0.7280   11.8850 O.3   528  THR528     -0.2211
     49  CG2       39.0330   -0.1060    9.7860 C.3   528  THR528      0.0375
     50  N         48.8130   -5.2550   10.6220 N.3   580  PHE580     -0.1227
     51  CA        49.1580   -3.9520   10.0140 C.3   580  PHE580      0.1736
     52  C         48.4210   -2.8070   10.6740 C.2   580  PHE580      0.2595
     53  O         49.0710   -1.9030   11.2290 O.2   580  PHE580     -0.2718
     54  CB        48.9680   -3.8970    8.4890 C.3   580  PHE580      0.0547
     55  CG        50.1800   -4.3360    7.7190 C.ar  580  PHE580     -0.0202
     56  CD1       50.0570   -5.1130    6.5730 C.ar  580  PHE580     -0.0042
     57  CD2       51.4580   -4.0180    8.1810 C.ar  580  PHE580     -0.0042
     58  CE1       51.1710   -5.5330    5.8790 C.ar  580  PHE580     -0.0003
     59  CE2       52.5840   -4.4520    7.5010 C.ar  580  PHE580     -0.0003
     60  CZ        52.4410   -5.2000    6.3400 C.ar  580  PHE580     -0.0000
     61  N         47.0820   -2.8710   10.6370 N.am  581  TRP581     -0.1976
     62  CA        46.2140   -1.7840   11.0970 C.3   581  TRP581      0.1640
     63  C         46.3140   -1.4990   12.6080 C.2   581  TRP581      0.2290
     64  O         46.0130   -0.3890   13.0610 O.2   581  TRP581     -0.2864
     65  CB        44.7640   -2.0340   10.6680 C.3   581  TRP581      0.0576
     66  CG        44.2140   -0.8790    9.8740 C.ar  581  TRP581      0.0006
     67  CD1       44.2450   -0.7350    8.5170 C.ar  581  TRP581      0.0946
     68  CD2       43.5930    0.3110   10.3840 C.ar  581  TRP581      0.0152
     69  NE1       43.6750    0.4620    8.1460 N.ar  581  TRP581     -0.2442
     70  CE2       43.2730    1.1240    9.2730 C.ar  581  TRP581      0.0810
     71  CE3       43.2700    0.7650   11.6680 C.ar  581  TRP581      0.0012
     72  CZ2       42.6550    2.3540    9.4070 C.ar  581  TRP581      0.0191
     73  CZ3       42.6470    1.9960   11.7940 C.ar  581  TRP581      0.0001
     74  CH2       42.3510    2.7750   10.6740 C.ar  581  TRP581      0.0015
     75  N         49.3590   -1.9900   14.4240 N.3   583  LEU583     -0.1231
     76  CA        50.5670   -1.1540   14.5470 C.3   583  LEU583      0.1693
     77  C         50.3450    0.2750   14.0020 C.2   583  LEU583      0.2592
     78  O         51.0370    1.2120   14.4070 O.2   583  LEU583     -0.2718
     79  CB        51.8210   -1.8010   13.9340 C.3   583  LEU583      0.0284
     80  CG        52.5540   -2.9980   14.5750 C.3   583  LEU583      0.0019
     81  CD1       53.8920   -3.1800   13.8800 C.3   583  LEU583      0.0001
     82  CD2       52.7720   -2.9210   16.0840 C.3   583  LEU583      0.0001
     83  N         49.3750    0.4150   13.0890 N.am  584  ASN584     -0.1974
     84  CA        48.7650    1.7050   12.7050 C.3   584  ASN584      0.1688
     85  C         48.0490    2.3370   13.9130 C.2   584  ASN584      0.2292
     86  O         48.3040    3.4790   14.3040 O.2   584  ASN584     -0.2864
     87  CB        47.7680    1.4580   11.5510 C.3   584  ASN584      0.1181
     88  CG        47.0520    2.7240   11.0690 C.2   584  ASN584      0.2629
     89  OD1       47.6700    3.7760   10.9020 O.2   584  ASN584     -0.2716
     90  ND2       45.7520    2.5970   10.7760 N.am  584  ASN584     -0.0877
     91  N         49.3700    5.3380   15.8940 N.3   588  TRP588     -0.1241
     92  CA        49.0160    6.6370   16.3970 C.3   588  TRP588      0.1605
     93  C         49.2920    6.8820   17.8770 C.2   588  TRP588      0.2264
     94  O         50.2370    7.5950   18.2030 O.2   588  TRP588     -0.2867
     95  CB        47.6400    7.1260   15.8760 C.3   588  TRP588      0.0550
     96  CG        47.6910    7.3620   14.3660 C.ar  588  TRP588      0.0003
     97  CD1       48.7740    7.7590   13.6440 C.ar  588  TRP588      0.0946
     98  CD2       46.6240    7.1890   13.4260 C.ar  588  TRP588      0.0152
     99  NE1       48.4560    7.8320   12.3190 N.ar  588  TRP588     -0.2442
    100  CE2       47.1380    7.4980   12.1570 C.ar  588  TRP588      0.0810
    101  CE3       45.2790    6.8040   13.5340 C.ar  588  TRP588      0.0012
    102  CZ2       46.3580    7.4340   11.0010 C.ar  588  TRP588      0.0191
    103  CZ3       44.4940    6.7580   12.3800 C.ar  588  TRP588      0.0001
    104  CH2       45.0370    7.0660   11.1380 C.ar  588  TRP588      0.0015
    105  N         52.2430    8.8510   19.2120 N.3   591  PHE591     -0.1241
    106  CA        52.4370   10.2480   18.8210 C.3   591  PHE591      0.1605
    107  C         51.9370   11.1220   19.9430 C.2   591  PHE591      0.2264
    108  O         52.7460   11.6550   20.6990 O.2   591  PHE591     -0.2867
    109  CB        51.6860   10.5820   17.5490 C.3   591  PHE591      0.0534
    110  CG        52.0600    9.7340   16.4010 C.ar  591  PHE591     -0.0203
    111  CD1       53.4060    9.4740   16.1220 C.ar  591  PHE591     -0.0042
    112  CD2       51.0770    9.2020   15.5850 C.ar  591  PHE591     -0.0042
    113  CE1       53.7760    8.6900   15.0530 C.ar  591  PHE591     -0.0003
    114  CE2       51.4070    8.4310   14.5130 C.ar  591  PHE591     -0.0003
    115  CZ        52.7710    8.1660   14.2330 C.ar  591  PHE591     -0.0000
    116  N         47.4280   18.5620   10.9900 N.3   615  LEU615     -0.1245
    117  CA        48.5280   17.6330   11.2670 C.3   615  LEU615      0.1561
    118  C         50.0100   18.0110   10.9820 C.2   615  LEU615      0.2260
    119  O         50.9050   17.4200   11.5810 O.2   615  LEU615     -0.2867
    120  CB        48.1790   16.2630   10.6980 C.3   615  LEU615      0.0270
    121  CG        48.3180   16.0340    9.2130 C.3   615  LEU615      0.0019
    122  CD1       47.1120   15.2460    8.8030 C.3   615  LEU615      0.0001
    123  CD2       48.4200   17.3230    8.4400 C.3   615  LEU615      0.0001
    124  N         51.5660   17.9970   13.9710 N.3   618  TRP618     -0.1227
    125  CA        52.2170   16.7060   14.1300 C.3   618  TRP618      0.1737
    126  C         53.5150   16.6590   13.3390 C.2   618  TRP618      0.2595
    127  O         54.5900   16.4790   13.9110 O.2   618  TRP618     -0.2718
    128  CB        51.2860   15.5780   13.6810 C.3   618  TRP618      0.0564
    129  CG        50.0770   15.4170   14.5500 C.ar  618  TRP618      0.0003
    130  CD1       48.7960   15.7730   14.2450 C.ar  618  TRP618      0.0946
    131  CD2       50.0350   14.8570   15.8680 C.ar  618  TRP618      0.0152
    132  NE1       47.9580   15.4700   15.2920 N.ar  618  TRP618     -0.2442
    133  CE2       48.6950   14.9060   16.3000 C.ar  618  TRP618      0.0810
    134  CE3       51.0010   14.3180   16.7240 C.ar  618  TRP618      0.0012
    135  CZ2       48.2960   14.4380   17.5510 C.ar  618  TRP618      0.0191
    136  CZ3       50.6030   13.8540   17.9650 C.ar  618  TRP618      0.0001
    137  CH2       49.2620   13.9170   18.3660 C.ar  618  TRP618      0.0015
    138  N         53.4170   16.8190   12.0230 N.am  619  LEU619     -0.1980
    139  CA        54.5860   16.6620   11.1870 C.3   619  LEU619      0.1596
    140  C         55.6780   17.6840   11.5980 C.2   619  LEU619      0.2287
    141  O         56.7920   17.2940   11.9870 O.2   619  LEU619     -0.2864
    142  CB        54.1950   16.7320    9.6970 C.3   619  LEU619      0.0297
    143  CG        54.8760   15.7190    8.7620 C.3   619  LEU619      0.0022
    144  CD1       53.8800   15.1770    7.7230 C.3   619  LEU619      0.0001
    145  CD2       56.1040   16.3020    8.0920 C.3   619  LEU619      0.0001
    146  N         56.8070   15.9360   14.6270 N.3   623  LEU623     -0.1245
    147  CA        57.7650   15.1030   13.9030 C.3   623  LEU623      0.1561
    148  C         59.0460   15.8360   13.5150 C.2   623  LEU623      0.2260
    149  O         60.1280   15.4210   13.9340 O.2   623  LEU623     -0.2867
    150  CB        57.1160   14.3680   12.6990 C.3   623  LEU623      0.0270
    151  CG        56.5750   12.8960   12.6910 C.3   623  LEU623      0.0019
    152  CD1       57.6820   11.8470   12.7520 C.3   623  LEU623      0.0001
    153  CD2       55.4930   12.5950   13.7400 C.3   623  LEU623      0.0001
    154  N         63.2910   -1.3590    8.3000 N.3   656  TRP656     -0.1241
    155  CA        61.9140   -1.1610    7.8600 C.3   656  TRP656      0.1605
    156  C         61.9270   -1.4500    6.3560 C.2   656  TRP656      0.2264
    157  O         62.2060   -2.5840    5.9790 O.2   656  TRP656     -0.2867
    158  CB        61.4070    0.2570    8.1690 C.3   656  TRP656      0.0550
    159  CG        59.9750    0.2420    8.5690 C.ar  656  TRP656      0.0003
    160  CD1       59.4900    0.0790    9.8200 C.ar  656  TRP656      0.0946
    161  CD2       58.8420    0.3360    7.7080 C.ar  656  TRP656      0.0152
    162  NE1       58.1200    0.0790    9.8080 N.ar  656  TRP656     -0.2442
    163  CE2       57.6940    0.2400    8.5220 C.ar  656  TRP656      0.0810
    164  CE3       58.6810    0.5190    6.3290 C.ar  656  TRP656      0.0012
    165  CZ2       56.4050    0.3230    8.0120 C.ar  656  TRP656      0.0191
    166  CZ3       57.3840    0.6070    5.8110 C.ar  656  TRP656      0.0001
    167  CH2       56.2660    0.5000    6.6540 C.ar  656  TRP656      0.0015
    168  N         60.1740   -5.3490    8.6780 N.3   712  PHE712     -0.1241
    169  CA        59.1040   -4.3700    8.9920 C.3   712  PHE712      0.1605
    170  C         59.0890   -4.1600   10.4960 C.2   712  PHE712      0.2264
    171  O         60.1330   -3.9180   11.0820 O.2   712  PHE712     -0.2867
    172  CB        57.7560   -4.9740    8.5480 C.3   712  PHE712      0.0534
    173  CG        56.7570   -3.9830    8.0300 C.ar  712  PHE712     -0.0203
    174  CD1       56.6410   -3.7460    6.6690 C.ar  712  PHE712     -0.0042
    175  CD2       55.8740   -3.3330    8.8900 C.ar  712  PHE712     -0.0042
    176  CE1       55.6810   -2.8340    6.1640 C.ar  712  PHE712     -0.0003
    177  CE2       54.9110   -2.4120    8.4080 C.ar  712  PHE712     -0.0003
    178  CZ        54.8200   -2.1620    7.0440 C.ar  712  PHE712     -0.0000
    179  N         60.1130   -1.2670   12.5740 N.3   716  TYR716     -0.1241
    180  CA        59.0730   -0.3690   13.0550 C.3   716  TYR716      0.1605
    181  C         59.0230   -0.4110   14.5530 C.2   716  TYR716      0.2264
    182  O         58.6400    0.5690   15.2030 O.2   716  TYR716     -0.2867
    183  CB        57.7090   -0.7820   12.5160 C.3   716  TYR716      0.0534
    184  CG        56.6330    0.1650   12.9100 C.ar  716  TYR716     -0.0201
    185  CD1       56.2560    0.3070   14.2590 C.ar  716  TYR716     -0.0009
    186  CD2       55.9750    0.9230   11.9490 C.ar  716  TYR716     -0.0009
    187  CE1       55.2660    1.1950   14.6380 C.ar  716  TYR716      0.0417
    188  CE2       54.9740    1.8170   12.3100 C.ar  716  TYR716      0.0417
    189  CZ        54.6280    1.9570   13.6550 C.ar  716  TYR716      0.1957
    190  OH        53.6470    2.8530   14.0100 O.3   716  TYR716     -0.2866
@<TRIPOS>BOND
     1    33    32    1
     2    34    32    1
     3    32    29    1
     4    29    30    1
     5    29    28    1
     6    18    17    1
     7    31    30    2
     8    19    17    1
     9    23    22    2
    10   166   164   ar
    11   166   167   ar
    12    28    22   am
    13    58    60   ar
    14    58    56   ar
    15    17    14    1
    16   157   156    2
    17   176   174   ar
    18   176   178   ar
    19    22    21    1
    20    16    15    2
    21   164   161   ar
    22    60    59   ar
    23   156   155    1
    24    56    55   ar
    25   167   165   ar
    26   174   173   ar
    27    15    14    1
    28   178   177   ar
    29    14    13    1
    30    24    21    1
    31    24    25    1
    32    59    57   ar
    33     8     7    2
    34     4     3    2
    35    21    20    1
    36    12    10    1
    37   161   163   ar
    38   161   159   ar
    39    55    57   ar
    40    55    54    1
    41   144   143    1
    42     3     2    1
    43   155   158    1
    44   155   154    1
    45   165   163   ar
    46   173   172    1
    47   173   175   ar
    48   145   143    1
    49    27    25   ar
    50    69    67   ar
    51    69    70   ar
    52   158   159    1
    53    25    26   ar
    54   177   175   ar
    55     7     6    1
    56     2     1    1
    57   123   121    1
    58    54    51    1
    59    67    66   ar
    60   163   162   ar
    61   172   169    1
    62   159   160   ar
    63   168   169    1
    64   143   142    1
    65   122   121    1
    66   169   170    1
    67    10     9    1
    68    10    11    1
    69   121   120    1
    70     9     6    1
    71    70    72   ar
    72    70    68   ar
    73    72    74   ar
    74     6     5    1
    75   142   139    1
    76    49    47    1
    77   162   160   ar
    78    66    68   ar
    79    66    65    1
    80    51    50    1
    81    51    52    1
    82    68    71   ar
    83   170   171    2
    84    61    52   am
    85    61    62    1
    86    65    62    1
    87    74    73   ar
    88    52    53    2
    89   120   117    1
    90    90    88   am
    91    89    88    2
    92   118   117    1
    93   118   119    2
    94   116   117    1
    95   102   104   ar
    96   102   100   ar
    97    88    87    1
    98    62    63    1
    99   104   103   ar
   100   139   140    1
   101   139   138    1
   102    46    45    2
   103    47    48    1
   104    47    44    1
   105    87    84    1
   106   140   141    2
   107    42    40    1
   108    71    73   ar
   109    44    45    1
   110    44    43    1
   111    41    40    1
   112   186   188   ar
   113   186   184   ar
   114   138   126   am
   115   100    99   ar
   116   100    98   ar
   117   188   189   ar
   118    99    97   ar
   119   103   101   ar
   120   183   184    1
   121   183   180    1
   122   179   180    1
   123    63    64    2
   124    40    39    1
   125   151   150    1
   126   151   152    1
   127   151   153    1
   128   150   147    1
   129    84    83    1
   130    84    85    1
   131   184   185   ar
   132   180   181    1
   133    83    77   am
   134   126   127    2
   135   126   125    1
   136    98   101   ar
   137    98    96   ar
   138   148   147    1
   139   148   149    2
   140    97    96   ar
   141   189   190    1
   142   189   187   ar
   143   128   125    1
   144   128   129    1
   145    39    36    1
   146    81    80    1
   147   147   146    1
   148    85    86    2
   149    79    76    1
   150    79    80    1
   151   124   125    1
   152    77    78    2
   153    77    76    1
   154   115   114   ar
   155   115   113   ar
   156   130   129   ar
   157   130   132   ar
   158   185   187   ar
   159    96    95    1
   160    75    76    1
   161   114   112   ar
   162   129   131   ar
   163   181   182    2
   164    80    82    1
   165    36    37    1
   166    36    35    1
   167    38    37    2
   168   113   111   ar
   169   132   133   ar
   170   112   110   ar
   171   131   133   ar
   172   131   134   ar
   173    95    92    1
   174    91    92    1
   175   111   110   ar
   176   133   135   ar
   177    92    93    1
   178   110   109    1
   179   134   136   ar
   180   109   106    1
   181   135   137   ar
   182    93    94    2
   183   136   137   ar
   184   106   105    1
   185   106   107    1
   186   107   108    2
