@<TRIPOS>MOLECULE
tmp/2o01L01.pdb
 85 83 0 0 0
SMALL
GASTEIGER

@<TRIPOS>ATOM
      1  N         74.7460  -26.7370  -21.7250 N.3    18  GLY18      -0.1210
      2  CA        75.8920  -26.1170  -21.0720 C.3    18  GLY18       0.1956
      3  C         76.4220  -24.9650  -21.8900 C.2    18  GLY18       0.2611
      4  O         76.2470  -23.8180  -21.5200 O.2    18  GLY18      -0.2717
      5  N         77.0870  -25.2980  -22.9890 N.am   19  LEU19      -0.1979
      6  CA        77.3310  -24.3790  -24.0850 C.3    19  LEU19       0.1596
      7  C         78.7590  -24.4960  -24.6180 C.2    19  LEU19       0.2287
      8  O         79.6930  -24.8230  -23.8600 O.2    19  LEU19      -0.2864
      9  CB        77.0390  -22.9370  -23.6740 C.3    19  LEU19       0.0297
     10  CG        76.1140  -22.0880  -24.5390 C.3    19  LEU19       0.0022
     11  CD1       76.7320  -21.7750  -25.8880 C.3    19  LEU19       0.0001
     12  CD2       74.8040  -22.8270  -24.6830 C.3    19  LEU19       0.0001
     13  N         81.5940  -22.2500  -27.1480 N.3    21  THR21      -0.1204
     14  CA        82.0770  -21.0050  -27.7500 C.3    21  THR21       0.1979
     15  C         83.5540  -20.9960  -27.3630 C.2    21  THR21       0.2460
     16  O         84.0300  -21.9590  -26.7500 O.2    21  THR21      -0.2732
     17  CB        81.4220  -19.7070  -27.1340 C.3    21  THR21       0.1783
     18  OG1       81.8920  -19.4860  -25.7920 O.3    21  THR21      -0.2211
     19  CG2       79.8940  -19.7440  -27.1520 C.3    21  THR21       0.0376
     20  N         84.3030  -19.9390  -27.7160 N.am   22  PRO22      -0.2717
     21  CA        85.5250  -19.8090  -26.9450 C.3    22  PRO22       0.1535
     22  C         85.1340  -19.3920  -25.5240 C.2    22  PRO22       0.2598
     23  O         84.0090  -18.9180  -25.3080 O.2    22  PRO22      -0.2715
     24  CB        86.2990  -18.7060  -27.6770 C.3    22  PRO22       0.0310
     25  CG        85.6330  -18.5680  -29.0020 C.3    22  PRO22       0.0237
     26  CD        84.1990  -18.8930  -28.7430 C.3    22  PRO22       0.0939
     27  N         86.0590  -19.5770  -24.5760 N.am   23  VAL23      -0.1964
     28  CA        85.7630  -19.5200  -23.1350 C.3    23  VAL23       0.1727
     29  C         84.8190  -20.6760  -22.7910 C.2    23  VAL23       0.2617
     30  O         83.8410  -20.5300  -22.0610 O.2    23  VAL23      -0.2715
     31  CB        85.3370  -18.0730  -22.6590 C.3    23  VAL23       0.0290
     32  CG1       84.3370  -18.0830  -21.5320 C.3    23  VAL23       0.0023
     33  CG2       86.5650  -17.2580  -22.2660 C.3    23  VAL23       0.0023
     34  N         85.1360  -21.8210  -23.4020 N.am   24  THR24      -0.1937
     35  CA        84.6480  -23.1680  -23.0490 C.3    24  THR24       0.2028
     36  C         85.8260  -24.1290  -23.2350 C.2    24  THR24       0.2643
     37  O         86.1110  -24.9650  -22.3610 O.2    24  THR24      -0.2714
     38  CB        83.4580  -23.6960  -23.9630 C.3    24  THR24       0.1808
     39  OG1       83.8500  -23.7520  -25.3510 O.3    24  THR24      -0.2208
     40  CG2       82.1920  -22.8610  -23.8110 C.3    24  THR24       0.0379
     41  N         86.5260  -23.9300  -24.3660 N.am   25  SER25      -0.1935
     42  CA        87.2880  -24.9650  -25.0820 C.3    25  SER25       0.2055
     43  C         87.9340  -24.3730  -26.3410 C.2    25  SER25       0.2643
     44  O         87.2620  -24.2590  -27.3620 O.2    25  SER25      -0.2714
     45  CB        86.3020  -26.0550  -25.5180 C.3    25  SER25       0.2130
     46  OG        85.1680  -25.4560  -26.1510 O.3    25  SER25      -0.2179
     47  N         89.2090  -23.9820  -26.2850 N.am   26  SER26      -0.1949
     48  CA        89.7860  -23.1560  -27.3740 C.3    26  SER26       0.1924
     49  C         91.3200  -23.0000  -27.4200 C.2    26  SER26       0.2314
     50  O         91.9710  -22.9400  -26.3640 O.2    26  SER26      -0.2863
     51  CB        89.1340  -21.7560  -27.4080 C.3    26  SER26       0.2116
     52  OG        89.5580  -20.9440  -26.3270 O.3    26  SER26      -0.2180
     53  N         94.0710  -20.8580  -25.4640 N.3    29  ILE29      -0.1231
     54  CA        94.7400  -21.5050  -24.3160 C.3    29  ILE29       0.1692
     55  C         93.7850  -21.9500  -23.1830 C.2    29  ILE29       0.2591
     56  O         94.1620  -21.9750  -22.0030 O.2    29  ILE29      -0.2718
     57  CB        96.0900  -20.7510  -23.8630 C.3    29  ILE29       0.0266
     58  CG1       97.1140  -20.7610  -25.0300 C.3    29  ILE29       0.0019
     59  CG2       96.6640  -21.3030  -22.5460 C.3    29  ILE29       0.0020
     60  CD1       98.5690  -20.3520  -24.7030 C.3    29  ILE29       0.0001
     61  N         92.5670  -22.3520  -23.5630 N.am   30  ALA30      -0.1980
     62  CA        91.7010  -23.0800  -22.6350 C.3    30  ALA30       0.1597
     63  C         92.6300  -23.8450  -21.7400 C.2    30  ALA30       0.2287
     64  O         92.4180  -23.9160  -20.5500 O.2    30  ALA30      -0.2864
     65  CB        90.7820  -24.0350  -23.3580 C.3    30  ALA30       0.0319
     66  N         94.6030  -23.4050  -19.7560 N.3    32  TYR32      -0.1227
     67  CA        94.4210  -23.0440  -18.3590 C.3    32  TYR32       0.1736
     68  C         93.6300  -24.1500  -17.6860 C.2    32  TYR32       0.2595
     69  O         94.1980  -25.1130  -17.1680 O.2    32  TYR32      -0.2718
     70  CB        93.6340  -21.7360  -18.2540 C.3    32  TYR32       0.0548
     71  CG        94.4080  -20.5860  -17.6990 C.ar   32  TYR32      -0.0200
     72  CD1       94.4490  -20.3580  -16.3170 C.ar   32  TYR32      -0.0009
     73  CD2       95.0870  -19.7140  -18.5490 C.ar   32  TYR32      -0.0009
     74  CE1       95.1640  -19.2950  -15.7860 C.ar   32  TYR32       0.0417
     75  CE2       95.8120  -18.6460  -18.0400 C.ar   32  TYR32       0.0417
     76  CZ        95.8520  -18.4380  -16.6550 C.ar   32  TYR32       0.1957
     77  OH        96.5840  -17.3730  -16.1650 O.3    32  TYR32      -0.2866
     78  N         92.3100  -23.9860  -17.7540 N.am   33  LEU33      -0.1980
     79  CA        91.2990  -24.8290  -17.1370 C.3    33  LEU33       0.1596
     80  C         91.6650  -26.3110  -17.1640 C.2    33  LEU33       0.2287
     81  O         90.7770  -27.1690  -17.2380 O.2    33  LEU33      -0.2864
     82  CB        89.9530  -24.6120  -17.8620 C.3    33  LEU33       0.0297
     83  CG        89.3940  -23.2190  -18.2500 C.3    33  LEU33       0.0022
     84  CD1       89.2020  -22.2930  -17.0600 C.3    33  LEU33       0.0001
     85  CD2       90.2080  -22.5010  -19.3060 C.3    33  LEU33       0.0001
@<TRIPOS>BOND
     1    25    26    1
     2    25    24    1
     3    26    20    1
     4    14    15    1
     5    14    13    1
     6    14    17    1
     7    20    15   am
     8    20    21    1
     9    24    21    1
    10    49    48    1
    11    49    50    2
    12    51    48    1
    13    51    52    1
    14    48    47    1
    15    15    16    2
    16    44    43    2
    17    19    17    1
    18    17    18    1
    19    21    22    1
    20    43    47   am
    21    43    42    1
    22    46    45    1
    23    11    10    1
    24    22    23    2
    25    22    27   am
    26    45    42    1
    27    53    54    1
    28    39    38    1
    29    42    41    1
    30    58    60    1
    31    58    57    1
    32    12    10    1
    33     7     6    1
    34     7     8    2
    35    27    28    1
    36    10     9    1
    37    41    36   am
    38    54    57    1
    39    54    55    1
    40     6     9    1
    41     6     5    1
    42    38    40    1
    43    38    35    1
    44    57    59    1
    45    61    55   am
    46    61    62    1
    47    34    35    1
    48    34    29   am
    49    65    62    1
    50    36    35    1
    51    36    37    2
    52    55    56    2
    53    28    29    1
    54    28    31    1
    55     5     3   am
    56    29    30    2
    57    31    33    1
    58    31    32    1
    59    62    63    1
    60     3     4    2
    61     3     2    1
    62    63    64    2
    63     1     2    1
    64    66    67    1
    65    85    83    1
    66    73    75   ar
    67    73    71   ar
    68    67    70    1
    69    67    68    1
    70    70    71    1
    71    83    82    1
    72    83    84    1
    73    75    76   ar
    74    82    79    1
    75    78    68   am
    76    78    79    1
    77    71    72   ar
    78    68    69    2
    79    81    80    2
    80    80    79    1
    81    76    77    1
    82    76    74   ar
    83    72    74   ar
