@<TRIPOS>MOLECULE
tmp/2o01B17.pdb
 157 148 0 0 0
SMALL
GASTEIGER

@<TRIPOS>ATOM
      1  N         39.1470  -28.4230   35.0920 N.3   170  ALA170     -0.1245
      2  CA        38.4320  -27.2180   35.4990 C.3   170  ALA170      0.1562
      3  C         38.6440  -26.8930   36.9840 C.2   170  ALA170      0.2260
      4  O         39.6950  -26.3960   37.3540 O.2   170  ALA170     -0.2867
      5  CB        36.9530  -27.3600   35.1740 C.3   170  ALA170      0.0290
      6  N         42.4790  -26.7600   38.8050 N.3   173  ARG173     -0.1231
      7  CA        43.2410  -25.8500   37.9530 C.3   173  ARG173      0.1694
      8  C         42.2850  -24.6850   37.7010 C.2   173  ARG173      0.2591
      9  O         41.5350  -24.7030   36.7210 O.2   173  ARG173     -0.2718
     10  CB        43.6690  -26.5880   36.6610 C.3   173  ARG173      0.0321
     11  CG        43.9410  -25.8000   35.3440 C.3   173  ARG173      0.0489
     12  CD        45.2110  -24.9170   35.2850 C.3   173  ARG173      0.2205
     13  NE        46.5290  -25.5700   35.2150 N.pl3 173  ARG173     -0.0865
     14  CZ        46.9160  -26.7090   35.8110 C.cat 173  ARG173      0.5346
     15  NH1       46.1010  -27.4400   36.5500 N.pl3 173  ARG173      0.1354
     16  NH2       48.1700  -27.1220   35.6800 N.pl3 173  ARG173      0.1354
     17  N         42.2940  -23.7100   38.6230 N.am  174  LEU174     -0.1980
     18  CA        41.4000  -22.5520   38.6070 C.3   174  LEU174      0.1596
     19  C         41.0440  -22.1630   40.0260 C.2   174  LEU174      0.2287
     20  O         41.6230  -21.2290   40.5720 O.2   174  LEU174     -0.2864
     21  CB        40.0960  -22.8340   37.8240 C.3   174  LEU174      0.0297
     22  CG        39.1570  -21.7800   37.1890 C.3   174  LEU174      0.0022
     23  CD1       38.0110  -22.5340   36.5240 C.3   174  LEU174      0.0001
     24  CD2       38.5880  -20.6700   38.1370 C.3   174  LEU174      0.0001
     25  N         43.1540  -22.8720   42.2040 N.3   177  HIS177     -0.1226
     26  CA        44.2630  -22.1640   41.5310 C.3   177  HIS177      0.1752
     27  C         44.1350  -20.6570   41.2780 C.2   177  HIS177      0.2595
     28  O         44.8900  -20.1000   40.4710 O.2   177  HIS177     -0.2718
     29  CB        44.8690  -22.8810   40.3030 C.3   177  HIS177      0.0759
     30  CG        46.2870  -22.4520   40.0300 C.ar  177  HIS177      0.0818
     31  ND1       46.8140  -22.3240   38.7630 N.ar  177  HIS177     -0.2268
     32  CD2       47.2720  -22.0670   40.8800 C.ar  177  HIS177      0.1154
     33  CE1       48.0670  -21.9130   38.8450 C.ar  177  HIS177      0.1986
     34  NE2       48.3670  -21.7470   40.1190 N.ar  177  HIS177     -0.2212
     35  N         43.2170  -19.9960   41.9720 N.am  178  LEU178     -0.1980
     36  CA        43.3770  -18.5790   42.1580 C.3   178  LEU178      0.1596
     37  C         44.0830  -18.5090   43.4840 C.2   178  LEU178      0.2287
     38  O         45.1650  -17.9630   43.5850 O.2   178  LEU178     -0.2864
     39  CB        42.0450  -17.8390   42.2450 C.3   178  LEU178      0.0297
     40  CG        40.7730  -18.2420   41.4840 C.3   178  LEU178      0.0022
     41  CD1       39.5620  -17.6430   42.1960 C.3   178  LEU178      0.0001
     42  CD2       40.7980  -17.8150   40.0110 C.3   178  LEU178      0.0001
     43  N         47.8670  -19.2800   43.3130 N.3   181  LEU181     -0.1231
     44  CA        48.5670  -18.5500   42.2610 C.3   181  LEU181      0.1693
     45  C         48.8890  -17.1180   42.6390 C.2   181  LEU181      0.2592
     46  O         50.0700  -16.7580   42.6880 O.2   181  LEU181     -0.2718
     47  CB        47.8060  -18.5880   40.9350 C.3   181  LEU181      0.0284
     48  CG        48.6250  -18.2860   39.6560 C.3   181  LEU181      0.0019
     49  CD1       48.4300  -16.8760   39.1290 C.3   181  LEU181      0.0001
     50  CD2       50.1140  -18.5910   39.8390 C.3   181  LEU181      0.0001
     51  N         47.8450  -16.3160   42.8790 N.am  182  PHE182     -0.1976
     52  CA        47.9730  -14.9420   43.3690 C.3   182  PHE182      0.1639
     53  C         48.0120  -14.9870   44.8900 C.2   182  PHE182      0.2290
     54  O         49.0760  -15.2240   45.4480 O.2   182  PHE182     -0.2864
     55  CB        46.8190  -14.0650   42.8780 C.3   182  PHE182      0.0560
     56  CG        46.5800  -14.1250   41.3750 C.ar  182  PHE182     -0.0200
     57  CD1       47.3480  -13.3600   40.4930 C.ar  182  PHE182     -0.0042
     58  CD2       45.5490  -14.9210   40.8450 C.ar  182  PHE182     -0.0042
     59  CE1       47.1010  -13.4040   39.1130 C.ar  182  PHE182     -0.0003
     60  CE2       45.2940  -14.9670   39.4740 C.ar  182  PHE182     -0.0003
     61  CZ        46.0710  -14.2120   38.6070 C.ar  182  PHE182     -0.0000
     62  N         30.2840  -25.2490   38.0580 N.3   300  ILE300     -0.1245
     63  CA        30.0260  -24.5340   36.8110 C.3   300  ILE300      0.1561
     64  C         28.7120  -25.0880   36.1670 C.2   300  ILE300      0.2260
     65  O         27.6270  -24.8760   36.7290 O.2   300  ILE300     -0.2867
     66  CB        31.3060  -24.4690   35.9210 C.3   300  ILE300      0.0252
     67  CG1       32.3860  -23.6580   36.6750 C.3   300  ILE300      0.0019
     68  CG2       31.0050  -23.8900   34.5510 C.3   300  ILE300      0.0019
     69  CD1       33.7990  -23.6250   36.0750 C.3   300  ILE300      0.0001
     70  N         25.5950  -23.4230   36.1650 N.3   303  ILE303     -0.1231
     71  CA        26.1330  -22.0930   36.0150 C.3   303  ILE303      0.1692
     72  C         25.6010  -21.6980   34.6390 C.2   303  ILE303      0.2591
     73  O         24.9510  -20.6760   34.4980 O.2   303  ILE303     -0.2718
     74  CB        27.6580  -22.1150   36.0230 C.3   303  ILE303      0.0266
     75  CG1       28.2410  -20.8240   36.6180 C.3   303  ILE303      0.0019
     76  CG2       28.1740  -22.3580   34.6240 C.3   303  ILE303      0.0020
     77  CD1       29.7710  -20.5950   36.3260 C.3   303  ILE303      0.0001
     78  N         25.8430  -22.5500   33.6430 N.am  304  LEU304     -0.1980
     79  CA        25.1310  -22.4790   32.3750 C.3   304  LEU304      0.1596
     80  C         23.7950  -23.2680   32.4500 C.2   304  LEU304      0.2287
     81  O         23.0050  -22.9910   33.3300 O.2   304  LEU304     -0.2864
     82  CB        26.0340  -22.9090   31.2240 C.3   304  LEU304      0.0297
     83  CG        27.2860  -22.0540   31.0300 C.3   304  LEU304      0.0022
     84  CD1       28.4800  -22.7440   31.6560 C.3   304  LEU304      0.0001
     85  CD2       27.5360  -21.7860   29.5320 C.3   304  LEU304      0.0001
     86  N         31.7050  -24.8840   27.4990 N.3   322  TYR322     -0.1241
     87  CA        32.5220  -25.7840   28.2920 C.3   322  TYR322      0.1605
     88  C         33.3650  -26.8140   27.5640 C.2   322  TYR322      0.2264
     89  O         34.5830  -26.6770   27.5170 O.2   322  TYR322     -0.2867
     90  CB        31.6440  -26.5460   29.3010 C.3   322  TYR322      0.0534
     91  CG        32.4520  -27.2680   30.3590 C.ar  322  TYR322     -0.0201
     92  CD1       33.4590  -28.1680   30.0010 C.ar  322  TYR322     -0.0009
     93  CD2       32.2260  -27.0300   31.6980 C.ar  322  TYR322     -0.0009
     94  CE1       34.2060  -28.8060   30.9360 C.ar  322  TYR322      0.0417
     95  CE2       32.9630  -27.6700   32.6550 C.ar  322  TYR322      0.0417
     96  CZ        33.9640  -28.5580   32.2760 C.ar  322  TYR322      0.1957
     97  OH        34.7320  -29.2120   33.2370 O.3   322  TYR322     -0.2866
     98  N         35.8890  -24.8070   25.7410 N.3   325  ILE325     -0.1231
     99  CA        36.9090  -24.0590   26.5300 C.3   325  ILE325      0.1692
    100  C         37.8430  -24.9520   27.3800 C.2   325  ILE325      0.2592
    101  O         39.0210  -24.6040   27.6190 O.2   325  ILE325     -0.2718
    102  CB        36.2330  -22.9770   27.4410 C.3   325  ILE325      0.0266
    103  CG1       37.0500  -22.7050   28.7110 C.3   325  ILE325      0.0019
    104  CG2       34.8050  -23.3770   27.8330 C.3   325  ILE325      0.0020
    105  CD1       37.9820  -21.4880   28.6150 C.3   325  ILE325      0.0001
    106  N         37.2970  -26.0850   27.8430 N.am  326  ASN326     -0.1974
    107  CA        38.0890  -27.1370   28.4750 C.3   326  ASN326      0.1688
    108  C         38.6010  -28.2260   27.5430 C.2   326  ASN326      0.2292
    109  O         39.6390  -28.8270   27.8180 O.2   326  ASN326     -0.2864
    110  CB        37.3540  -27.7720   29.6330 C.3   326  ASN326      0.1181
    111  CG        38.3020  -28.4670   30.5810 C.2   326  ASN326      0.2629
    112  OD1       39.1510  -29.2560   30.1580 O.2   326  ASN326     -0.2716
    113  ND2       38.1760  -28.1670   31.8770 N.am  326  ASN326     -0.0877
    114  N         42.5040  -21.3080   26.2250 N.3   332  GLN332     -0.1245
    115  CA        43.7410  -21.2810   27.0120 C.3   332  GLN332      0.1566
    116  C         44.8970  -20.8500   26.0630 C.2   332  GLN332      0.2260
    117  O         45.9320  -21.5370   25.8800 O.2   332  GLN332     -0.2867
    118  CB        44.0060  -22.6560   27.6300 C.3   332  GLN332      0.0367
    119  CG        42.7390  -23.4000   28.1120 C.3   332  GLN332      0.0905
    120  CD        42.8890  -24.9270   28.1750 C.2   332  GLN332      0.2608
    121  OE1       41.8840  -25.6360   28.2150 O.2   332  GLN332     -0.2717
    122  NE2       44.1330  -25.4300   28.1880 N.am  332  GLN332     -0.0878
    123  N         41.9740  -16.8590   25.5650 N.3   335  LEU335     -0.1231
    124  CA        41.8310  -15.7690   26.5760 C.3   335  LEU335      0.1693
    125  C         42.9850  -15.5770   27.5970 C.2   335  LEU335      0.2591
    126  O         42.8610  -14.7810   28.5480 O.2   335  LEU335     -0.2718
    127  CB        40.5250  -15.8860   27.3820 C.3   335  LEU335      0.0284
    128  CG        39.1000  -16.0870   26.8720 C.3   335  LEU335      0.0019
    129  CD1       38.9630  -15.8510   25.3620 C.3   335  LEU335      0.0001
    130  CD2       38.5890  -17.4740   27.3030 C.3   335  LEU335      0.0001
    131  N         44.0810  -16.3120   27.4240 N.am  336  ALA336     -0.1980
    132  CA        45.3130  -16.0300   28.1800 C.3   336  ALA336      0.1597
    133  C         46.4670  -15.5620   27.2470 C.2   336  ALA336      0.2287
    134  O         47.6590  -15.8850   27.4080 O.2   336  ALA336     -0.2864
    135  CB        45.6970  -17.2100   29.0540 C.3   336  ALA336      0.0319
    136  N         43.0730  -11.5480   27.6160 N.3   339  SER339     -0.1202
    137  CA        42.5630  -10.7920   28.7410 C.3   339  SER339      0.2020
    138  C         43.7130  -10.3130   29.5730 C.2   339  SER339      0.2618
    139  O         43.5900   -9.3220   30.2840 O.2   339  SER339     -0.2717
    140  CB        41.6250  -11.6520   29.5800 C.3   339  SER339      0.2103
    141  OG        40.7700  -12.4390   28.7710 O.3   339  SER339     -0.2182
    142  N         44.8110  -11.0680   29.5280 N.am  340  LEU340     -0.1979
    143  CA        46.1200  -10.5080   29.7970 C.3   340  LEU340      0.1596
    144  C         46.3630   -9.6900   28.5390 C.2   340  LEU340      0.2287
    145  O         47.4540   -9.1540   28.3440 O.2   340  LEU340     -0.2864
    146  CB        47.1880  -11.5940   30.0580 C.3   340  LEU340      0.0297
    147  CG        48.6910  -11.5580   29.6400 C.3   340  LEU340      0.0022
    148  CD1       49.3070  -10.1850   29.6170 C.3   340  LEU340      0.0001
    149  CD2       49.5520  -12.4760   30.5280 C.3   340  LEU340      0.0001
    150  N         44.8680   -6.1070   30.5270 N.3   343  ILE343     -0.1245
    151  CA        45.7450   -5.7700   31.6430 C.3   343  ILE343      0.1561
    152  C         46.9110   -4.9050   31.1710 C.2   343  ILE343      0.2260
    153  O         47.1420   -3.8130   31.6900 O.2   343  ILE343     -0.2867
    154  CB        46.2990   -7.0340   32.3270 C.3   343  ILE343      0.0252
    155  CG1       47.7800   -7.2180   31.9880 C.3   343  ILE343      0.0019
    156  CG2       45.4970   -8.2590   31.9140 C.3   343  ILE343      0.0019
    157  CD1       48.5540   -7.9900   33.0330 C.3   343  ILE343      0.0001
@<TRIPOS>BOND
     1   129   128    1
     2   123   124    1
     3    98    99    1
     4   117   116    2
     5   116   115    1
     6   114   115    1
     7    99   100    1
     8    99   102    1
     9   124   127    1
    10   124   125    1
    11   128   130    1
    12   128   127    1
    13   115   118    1
    14   133   134    2
    15   133   132    1
    16   100   101    2
    17   100   106   am
    18   131   125   am
    19   131   132    1
    20   102   104    1
    21   102   103    1
    22    86    87    1
    23    89    88    2
    24   108   109    2
    25   108   107    1
    26    88    87    1
    27   125   126    2
    28   136   137    1
    29   118   119    1
    30   106   107    1
    31   119   120    1
    32   120   122   am
    33   120   121    2
    34   132   135    1
    35    87    90    1
    36   145   144    2
    37   107   110    1
    38   144   143    1
    39   105   103    1
    40   137   138    1
    41   137   140    1
    42   141   140    1
    43    90    91    1
    44   142   138   am
    45   142   143    1
    46    85    83    1
    47   138   139    2
    48   148   147    1
    49   110   111    1
    50   147   146    1
    51   147   149    1
    52   143   146    1
    53    92    91   ar
    54    92    94   ar
    55   112   111    2
    56    91    93   ar
    57   150   151    1
    58   111   113   am
    59    94    96   ar
    60    83    82    1
    61    83    84    1
    62   152   151    1
    63   152   153    2
    64    82    79    1
    65   151   154    1
    66    93    95   ar
    67   156   154    1
    68   155   154    1
    69   155   157    1
    70    96    95   ar
    71    96    97    1
    72    79    80    1
    73    79    78    1
    74    80    81    2
    75    78    72   am
    76    73    72    2
    77    68    66    1
    78    76    74    1
    79    72    71    1
    80     1     2    1
    81     5     2    1
    82    13    12    1
    83    13    14    2
    84    12    11    1
    85    11    10    1
    86     2     3    1
    87    16    14    1
    88    14    15    1
    89    66    67    1
    90    66    63    1
    91    71    74    1
    92    71    70    1
    93    74    75    1
    94    69    67    1
    95    64    65    2
    96    64    63    1
    97    77    75    1
    98    23    22    1
    99    10     7    1
   100     9     8    2
   101    63    62    1
   102     3     4    2
   103    22    21    1
   104    22    24    1
   105     8     7    1
   106     8    17   am
   107    21    18    1
   108     7     6    1
   109    61    59   ar
   110    61    60   ar
   111    18    17    1
   112    18    19    1
   113    31    33   ar
   114    31    30   ar
   115    33    34   ar
   116    59    57   ar
   117    49    48    1
   118    60    58   ar
   119    48    50    1
   120    48    47    1
   121    42    40    1
   122    19    20    2
   123    30    29    1
   124    30    32   ar
   125    34    32   ar
   126    29    26    1
   127    28    27    2
   128    57    56   ar
   129    58    56   ar
   130    47    44    1
   131    27    26    1
   132    27    35   am
   133    56    55    1
   134    40    41    1
   135    40    39    1
   136    26    25    1
   137    35    36    1
   138    36    39    1
   139    36    37    1
   140    44    45    1
   141    44    43    1
   142    45    46    2
   143    45    51   am
   144    55    52    1
   145    51    52    1
   146    52    53    1
   147    37    38    2
   148    53    54    2
