@<TRIPOS>MOLECULE
tmp/2o01A03.pdb
 98 97 0 0 0
SMALL
GASTEIGER

@<TRIPOS>ATOM
      1  N         60.6620   18.0560  -40.4770 N.3   181  LEU181     -0.1245
      2  CA        61.5640   18.7910  -39.6370 C.3   181  LEU181      0.1561
      3  C         61.8300   20.0050  -40.5310 C.2   181  LEU181      0.2260
      4  O         61.4640   21.1380  -40.1900 O.2   181  LEU181     -0.2867
      5  CB        62.8520   18.0300  -39.3290 C.3   181  LEU181      0.0270
      6  CG        62.9060   16.7130  -38.5600 C.3   181  LEU181      0.0019
      7  CD1       64.2170   16.6860  -37.8430 C.3   181  LEU181      0.0001
      8  CD2       61.7740   16.5210  -37.5510 C.3   181  LEU181      0.0001
      9  N         61.0510   23.0470  -40.8550 N.3   184  GLY184     -0.1210
     10  CA        61.5300   23.6260  -39.6310 C.3   184  GLY184      0.1956
     11  C         62.9990   23.9610  -39.6810 C.2   184  GLY184      0.2612
     12  O         63.4310   24.7760  -40.4920 O.2   184  GLY184     -0.2717
     13  N         63.7560   23.2960  -38.8130 N.am  185  SER185     -0.1952
     14  CA        65.0780   23.7470  -38.4470 C.3   185  SER185      0.1924
     15  C         65.3540   25.1230  -39.0690 C.2   185  SER185      0.2314
     16  O         65.0690   26.1470  -38.4610 O.2   185  SER185     -0.2863
     17  CB        66.1390   22.7020  -38.7950 C.3   185  SER185      0.2116
     18  OG        67.4340   23.1350  -38.3890 O.3   185  SER185     -0.2180
     19  N         63.1840   28.0680  -39.0450 N.3   188  TRP188     -0.1241
     20  CA        63.1260   28.7400  -37.7750 C.3   188  TRP188      0.1605
     21  C         64.3180   29.6920  -37.7980 C.2   188  TRP188      0.2264
     22  O         64.3520   30.6440  -37.0470 O.2   188  TRP188     -0.2867
     23  CB        63.1850   27.7520  -36.6000 C.3   188  TRP188      0.0550
     24  CG        62.8630   28.4010  -35.2720 C.ar  188  TRP188      0.0003
     25  CD1       63.7380   28.6710  -34.2460 C.ar  188  TRP188      0.0946
     26  CD2       61.5820   28.8920  -34.8430 C.ar  188  TRP188      0.0152
     27  NE1       63.0700   29.2850  -33.2070 N.ar  188  TRP188     -0.2442
     28  CE2       61.7500   29.4290  -33.5480 C.ar  188  TRP188      0.0810
     29  CE3       60.3120   28.9260  -35.4240 C.ar  188  TRP188      0.0012
     30  CZ2       60.6940   29.9860  -32.8310 C.ar  188  TRP188      0.0191
     31  CZ3       59.2660   29.4680  -34.7030 C.ar  188  TRP188      0.0001
     32  CH2       59.4580   29.9920  -33.4250 C.ar  188  TRP188      0.0015
     33  N         73.3340   30.3630  -33.0620 N.3   269  ILE269     -0.1245
     34  CA        72.2010   29.4170  -33.3250 C.3   269  ILE269      0.1561
     35  C         71.5500   29.3500  -34.7190 C.2   269  ILE269      0.2260
     36  O         70.5500   28.6420  -34.8560 O.2   269  ILE269     -0.2867
     37  CB        71.0500   29.4640  -32.2530 C.3   269  ILE269      0.0252
     38  CG1       71.2610   28.3990  -31.1940 C.3   269  ILE269      0.0019
     39  CG2       69.6930   29.1350  -32.8530 C.3   269  ILE269      0.0019
     40  CD1       71.6140   28.9560  -29.8570 C.3   269  ILE269      0.0001
     41  N         74.0430   26.5220  -36.0680 N.3   272  HIS272     -0.1226
     42  CA        73.5300   25.2780  -35.4770 C.3   272  HIS272      0.1752
     43  C         72.2330   24.7580  -36.0990 C.2   272  HIS272      0.2596
     44  O         71.9380   23.5600  -35.9800 O.2   272  HIS272     -0.2718
     45  CB        73.3840   25.3210  -33.9510 C.3   272  HIS272      0.0759
     46  CG        73.4000   23.9510  -33.3330 C.ar  272  HIS272      0.0818
     47  ND1       74.5260   23.1490  -33.3350 N.ar  272  HIS272     -0.2268
     48  CD2       72.4210   23.2130  -32.7610 C.ar  272  HIS272      0.1154
     49  CE1       74.2490   21.9950  -32.7560 C.ar  272  HIS272      0.1986
     50  NE2       72.9780   22.0060  -32.4000 N.ar  272  HIS272     -0.2212
     51  N         71.4550   25.6250  -36.7520 N.am  273  HIS273     -0.1975
     52  CA        70.1210   25.1830  -37.1980 C.3   273  HIS273      0.1656
     53  C         69.7740   25.3360  -38.7000 C.2   273  HIS273      0.2291
     54  O         68.5990   25.3990  -39.0920 O.2   273  HIS273     -0.2864
     55  CB        69.0510   25.6640  -36.2070 C.3   273  HIS273      0.0771
     56  CG        69.4470   25.4380  -34.7780 C.ar  273  HIS273      0.0820
     57  ND1       70.2830   24.4090  -34.3900 N.ar  273  HIS273     -0.2267
     58  CD2       69.1380   26.1130  -33.6460 C.ar  273  HIS273      0.1154
     59  CE1       70.4700   24.4590  -33.0840 C.ar  273  HIS273      0.1986
     60  NE2       69.7870   25.4840  -32.6060 N.ar  273  HIS273     -0.2212
     61  N         72.7500   21.1170  -39.0500 N.3   276  ILE276     -0.1245
     62  CA        71.7340   20.2780  -38.4680 C.3   276  ILE276      0.1561
     63  C         70.4780   21.0540  -38.8230 C.2   276  ILE276      0.2260
     64  O         70.0380   21.9560  -38.0860 O.2   276  ILE276     -0.2867
     65  CB        71.8670   20.1100  -36.9480 C.3   276  ILE276      0.0252
     66  CG1       73.3330   19.7810  -36.5640 C.3   276  ILE276      0.0019
     67  CG2       70.8080   19.0850  -36.4430 C.3   276  ILE276      0.0019
     68  CD1       73.6800   19.9820  -35.0610 C.3   276  ILE276      0.0001
     69  N         69.0230   15.8890  -42.8290 N.3   280  PHE280     -0.1241
     70  CA        67.6180   15.8890  -42.4310 C.3   280  PHE280      0.1605
     71  C         66.8230   16.4970  -43.5770 C.2   280  PHE280      0.2264
     72  O         65.6400   16.3330  -43.6380 O.2   280  PHE280     -0.2867
     73  CB        67.3470   16.7260  -41.1660 C.3   280  PHE280      0.0534
     74  CG        67.7810   16.0920  -39.8460 C.ar  280  PHE280     -0.0203
     75  CD1       68.4120   14.8570  -39.7820 C.ar  280  PHE280     -0.0042
     76  CD2       67.5880   16.7900  -38.6510 C.ar  280  PHE280     -0.0042
     77  CE1       68.8070   14.3170  -38.5440 C.ar  280  PHE280     -0.0003
     78  CE2       67.9760   16.2550  -37.4270 C.ar  280  PHE280     -0.0003
     79  CZ        68.5860   15.0170  -37.3740 C.ar  280  PHE280     -0.0000
     80  N         70.1570   26.7870  -23.0710 N.3   351  PRO351     -0.2102
     81  CA        69.4130   27.5510  -24.1020 C.3   351  PRO351      0.1504
     82  C         68.7590   28.8720  -23.5960 C.2   351  PRO351      0.2575
     83  O         69.4010   29.5810  -22.8230 O.2   351  PRO351     -0.2718
     84  CB        68.3740   26.5290  -24.6150 C.3   351  PRO351      0.0282
     85  CG        68.9270   25.1930  -24.1800 C.3   351  PRO351      0.0208
     86  CD        69.4780   25.5140  -22.8050 C.3   351  PRO351      0.0893
     87  N         67.5230   29.1780  -24.0190 N.am  352  TYR352     -0.1977
     88  CA        66.8760   30.5160  -23.8920 C.3   352  TYR352      0.1639
     89  C         67.3660   31.4550  -22.7530 C.2   352  TYR352      0.2290
     90  O         67.6950   30.9880  -21.6390 O.2   352  TYR352     -0.2864
     91  CB        65.3530   30.4060  -23.7870 C.3   352  TYR352      0.0560
     92  CG        64.6860   29.1650  -24.3460 C.ar  352  TYR352     -0.0198
     93  CD1       65.0950   27.8700  -23.9690 C.ar  352  TYR352     -0.0009
     94  CD2       63.5990   29.2730  -25.2140 C.ar  352  TYR352     -0.0009
     95  CE1       64.4560   26.7220  -24.4850 C.ar  352  TYR352      0.0417
     96  CE2       62.9560   28.1290  -25.7270 C.ar  352  TYR352      0.0417
     97  CZ        63.3830   26.8670  -25.3560 C.ar  352  TYR352      0.1957
     98  OH        62.7310   25.7620  -25.8570 O.3   352  TYR352     -0.2866
@<TRIPOS>BOND
     1    72    71    2
     2    71    70    1
     3    69    70    1
     4    70    73    1
     5    73    74    1
     6     9    10    1
     7     3     4    2
     8     3     2    1
     9    12    11    2
    10     1     2    1
    11    74    75   ar
    12    74    76   ar
    13    75    77   ar
    14    11    10    1
    15    11    13   am
    16     2     5    1
    17     5     6    1
    18    54    53    2
    19    15    16    2
    20    15    14    1
    21    61    62    1
    22    19    20    1
    23    63    62    1
    24    63    64    2
    25    13    14    1
    26    17    14    1
    27    17    18    1
    28    53    52    1
    29    76    78   ar
    30     6     7    1
    31     6     8    1
    32    77    79   ar
    33    62    65    1
    34    21    20    1
    35    21    22    2
    36    20    23    1
    37    78    79   ar
    38    52    51    1
    39    52    55    1
    40    65    66    1
    41    65    67    1
    42    51    43   am
    43    23    24    1
    44    66    68    1
    45    55    56    1
    46    43    44    2
    47    43    42    1
    48    41    42    1
    49    42    45    1
    50    29    26   ar
    51    29    31   ar
    52    24    26   ar
    53    24    25   ar
    54    36    35    2
    55    26    28   ar
    56    56    57   ar
    57    56    58   ar
    58    35    34    1
    59    31    32   ar
    60    57    59   ar
    61    25    27   ar
    62    45    46    1
    63    58    60   ar
    64    28    27   ar
    65    28    30   ar
    66    32    30   ar
    67    47    46   ar
    68    47    49   ar
    69    46    48   ar
    70    34    33    1
    71    34    37    1
    72    59    60   ar
    73    39    37    1
    74    48    50   ar
    75    49    50   ar
    76    37    38    1
    77    38    40    1
    78    98    97    1
    79    96    97   ar
    80    96    94   ar
    81    97    95   ar
    82    94    92   ar
    83    84    85    1
    84    84    81    1
    85    95    93   ar
    86    92    93   ar
    87    92    91    1
    88    85    86    1
    89    81    82    1
    90    81    80    1
    91    87    88    1
    92    87    82   am
    93    88    91    1
    94    88    89    1
    95    82    83    2
    96    80    86    1
    97    89    90    2
