@<TRIPOS>MOLECULE
tmp/2o01A28.pdb
 102 101 0 0 0
SMALL
GASTEIGER

@<TRIPOS>ATOM
      1  N         49.7960   10.5270    2.3160 N.3   654  PHE654     -0.1241
      2  CA        48.6140    9.7240    2.0590 C.3   654  PHE654      0.1605
      3  C         48.3790    9.8540    0.5430 C.2   654  PHE654      0.2264
      4  O         48.2720   10.9770    0.0410 O.2   654  PHE654     -0.2867
      5  CB        47.4460   10.2760    2.8630 C.3   654  PHE654      0.0534
      6  CG        46.0740    9.8290    2.3810 C.ar  654  PHE654     -0.0203
      7  CD1       45.0470    9.6130    3.2970 C.ar  654  PHE654     -0.0042
      8  CD2       45.7910    9.6700    1.0380 C.ar  654  PHE654     -0.0042
      9  CE1       43.8060    9.2440    2.8980 C.ar  654  PHE654     -0.0003
     10  CE2       44.5530    9.2940    0.6390 C.ar  654  PHE654     -0.0003
     11  CZ        43.5550    9.0790    1.5720 C.ar  654  PHE654     -0.0000
     12  N         50.5690    6.5580    0.4640 N.3   657  ALA657     -0.1231
     13  CA        50.1900    5.6610    1.5420 C.3   657  ALA657      0.1694
     14  C         49.0850    4.6680    1.1200 C.2   657  ALA657      0.2592
     15  O         49.3550    3.4930    0.8530 O.2   657  ALA657     -0.2718
     16  CB        49.7810    6.4970    2.7670 C.3   657  ALA657      0.0304
     17  N         47.8520    5.1590    1.0920 N.am  658  PHE658     -0.1976
     18  CA        46.7520    4.5400    0.3680 C.3   658  PHE658      0.1639
     19  C         47.1600    3.9360   -1.0100 C.2   658  PHE658      0.2290
     20  O         46.4010    3.9650   -2.0020 O.2   658  PHE658     -0.2864
     21  CB        45.6630    5.5860    0.1940 C.3   658  PHE658      0.0560
     22  CG        44.5960    5.1750   -0.7110 C.ar  658  PHE658     -0.0200
     23  CD1       44.6650    5.4890   -2.0410 C.ar  658  PHE658     -0.0042
     24  CD2       43.5330    4.4640   -0.2290 C.ar  658  PHE658     -0.0042
     25  CE1       43.6930    5.1040   -2.8910 C.ar  658  PHE658     -0.0003
     26  CE2       42.5490    4.0740   -1.0500 C.ar  658  PHE658     -0.0003
     27  CZ        42.6350    4.3850   -2.4020 C.ar  658  PHE658     -0.0000
     28  N         49.6570    0.8340   -0.4640 N.3   660  LEU660     -0.1231
     29  CA        49.9640   -0.4080    0.2280 C.3   660  LEU660      0.1693
     30  C         48.7280   -1.1220    0.6950 C.2   660  LEU660      0.2591
     31  O         48.7470   -2.3360    0.8500 O.2   660  LEU660     -0.2718
     32  CB        50.8750   -0.0890    1.4240 C.3   660  LEU660      0.0284
     33  CG        52.2360    0.5480    1.0650 C.3   660  LEU660      0.0019
     34  CD1       52.3380    0.8840   -0.4290 C.3   660  LEU660      0.0001
     35  CD2       52.6440    1.7620    1.9410 C.3   660  LEU660      0.0001
     36  N         47.6480   -0.3720    0.9120 N.am  661  MET661     -0.1979
     37  CA        46.4020   -0.9600    1.3920 C.3   661  MET661      0.1605
     38  C         45.7900   -1.8930    0.3350 C.2   661  MET661      0.2287
     39  O         45.1460   -2.9060    0.6580 O.2   661  MET661     -0.2864
     40  CB        45.4390    0.1310    1.7470 C.3   661  MET661      0.0413
     41  CG        44.2770   -0.3780    2.4810 C.3   661  MET661      0.0598
     42  SD        42.9200   -0.6220    1.3570 S.3   661  MET661     -0.1393
     43  CE        42.6730    1.0060    0.6440 C.3   661  MET661      0.0692
     44  N         49.8580   -4.2210   -0.5600 N.3   664  PHE664     -0.1227
     45  CA        50.2530   -5.2370    0.4470 C.3   664  PHE664      0.1736
     46  C         49.1110   -6.2320    0.6810 C.2   664  PHE664      0.2596
     47  O         49.3680   -7.3740    1.0790 O.2   664  PHE664     -0.2718
     48  CB        50.6490   -4.6000    1.8010 C.3   664  PHE664      0.0547
     49  CG        51.8900   -3.7240    1.7560 C.ar  664  PHE664     -0.0202
     50  CD1       52.5790   -3.4770    0.5590 C.ar  664  PHE664     -0.0042
     51  CD2       52.3540   -3.1200    2.9280 C.ar  664  PHE664     -0.0042
     52  CE1       53.7290   -2.6390    0.5380 C.ar  664  PHE664     -0.0003
     53  CE2       53.4840   -2.2900    2.9160 C.ar  664  PHE664     -0.0003
     54  CZ        54.1780   -2.0470    1.7130 C.ar  664  PHE664     -0.0000
     55  N         47.8770   -5.7900    0.4080 N.am  665  SER665     -0.1952
     56  CA        46.6320   -6.5070    0.7750 C.3   665  SER665      0.1924
     57  C         46.4190   -7.7570   -0.0070 C.2   665  SER665      0.2314
     58  O         47.1240   -8.0210   -0.9610 O.2   665  SER665     -0.2863
     59  CB        45.3890   -5.6150    0.5580 C.3   665  SER665      0.2116
     60  OG        44.1630   -6.3390    0.6480 O.3   665  SER665     -0.2180
     61  N         40.4810  -11.7870   -0.0970 N.3   669  TYR669     -0.1227
     62  CA        40.2140  -10.9020    1.0470 C.3   669  TYR669      0.1736
     63  C         39.9530   -9.4960    0.5840 C.2   669  TYR669      0.2595
     64  O         40.8600   -8.7720    0.2020 O.2   669  TYR669     -0.2718
     65  CB        41.3380  -10.8720    2.0820 C.3   669  TYR669      0.0548
     66  CG        40.9240  -10.0600    3.2880 C.ar  669  TYR669     -0.0200
     67  CD1       39.8220  -10.4350    4.0500 C.ar  669  TYR669     -0.0009
     68  CD2       41.6050   -8.9180    3.6540 C.ar  669  TYR669     -0.0009
     69  CE1       39.4150   -9.6980    5.1510 C.ar  669  TYR669      0.0417
     70  CE2       41.2000   -8.1650    4.7650 C.ar  669  TYR669      0.0417
     71  CZ        40.0990   -8.5690    5.5090 C.ar  669  TYR669      0.1957
     72  OH        39.6880   -7.8530    6.6100 O.3   669  TYR669     -0.2866
     73  N         38.6840   -9.1440    0.7090 N.am  670  TRP670     -0.1976
     74  CA        38.0100   -8.0280    0.0490 C.3   670  TRP670      0.1640
     75  C         36.7410   -8.5760   -0.6420 C.2   670  TRP670      0.2290
     76  O         35.6330   -8.2010   -0.2180 O.2   670  TRP670     -0.2864
     77  CB        38.9150   -7.1940   -0.8710 C.3   670  TRP670      0.0576
     78  CG        39.7990   -6.2300   -0.1210 C.ar  670  TRP670      0.0006
     79  CD1       41.1580   -6.2860   -0.0100 C.ar  670  TRP670      0.0946
     80  CD2       39.3830   -5.0780    0.6270 C.ar  670  TRP670      0.0152
     81  NE1       41.6210   -5.2430    0.7640 N.ar  670  TRP670     -0.2442
     82  CE2       40.5510   -4.4850    1.1670 C.ar  670  TRP670      0.0810
     83  CE3       38.1370   -4.4880    0.9000 C.ar  670  TRP670      0.0012
     84  CZ2       40.5090   -3.3190    1.9490 C.ar  670  TRP670      0.0191
     85  CZ3       38.0970   -3.3340    1.6910 C.ar  670  TRP670      0.0001
     86  CH2       39.2790   -2.7640    2.1950 C.ar  670  TRP670      0.0015
     87  N         34.7310  -10.1070    1.5650 N.3   673  LEU673     -0.1245
     88  CA        34.1010   -9.0630    2.3370 C.3   673  LEU673      0.1561
     89  C         32.7470   -8.5910    1.7780 C.2   673  LEU673      0.2260
     90  O         31.7210   -8.6910    2.4730 O.2   673  LEU673     -0.2867
     91  CB        35.0570   -7.8920    2.5910 C.3   673  LEU673      0.0270
     92  CG        34.5740   -7.2770    3.9130 C.3   673  LEU673      0.0019
     93  CD1       35.6590   -7.0990    4.9930 C.3   673  LEU673      0.0001
     94  CD2       33.7980   -6.0110    3.6400 C.3   673  LEU673      0.0001
     95  N         28.4520   -6.5840    4.2510 N.3   677  ILE677     -0.1245
     96  CA        27.8010   -5.3260    3.9650 C.3   677  ILE677      0.1561
     97  C         26.5660   -5.7160    3.1580 C.2   677  ILE677      0.2260
     98  O         25.4390   -5.5010    3.6260 O.2   677  ILE677     -0.2867
     99  CB        28.7760   -4.3050    3.2740 C.3   677  ILE677      0.0252
    100  CG1       29.9800   -4.0270    4.2120 C.3   677  ILE677      0.0019
    101  CG2       28.0690   -2.9920    2.9350 C.3   677  ILE677      0.0019
    102  CD1       31.2900   -3.6470    3.5480 C.3   677  ILE677      0.0001
@<TRIPOS>BOND
     1    25    27   ar
     2    25    23   ar
     3    27    26   ar
     4    23    22   ar
     5    20    19    2
     6    26    24   ar
     7    19    18    1
     8    58    57    2
     9    77    78    1
    10    77    74    1
    11    22    24   ar
    12    22    21    1
    13    75    76    2
    14    75    74    1
    15    44    45    1
    16    28    29    1
    17    34    33    1
    18    78    79   ar
    19    78    80   ar
    20    61    62    1
    21    79    81   ar
    22    57    56    1
    23     4     3    2
    24    74    73    1
    25    21    18    1
    26    64    63    2
    27    29    30    1
    28    29    32    1
    29    38    39    2
    30    38    37    1
    31    18    17    1
    32    55    46   am
    33    55    56    1
    34    45    46    1
    35    45    48    1
    36    12    13    1
    37    52    50   ar
    38    52    54   ar
    39     3     2    1
    40    59    60    1
    41    59    56    1
    42    50    49   ar
    43    63    73   am
    44    63    62    1
    45    80    83   ar
    46    80    82   ar
    47    10     8   ar
    48    10    11   ar
    49    43    42    1
    50    46    47    2
    51    30    31    2
    52    30    36   am
    53    81    82   ar
    54    15    14    2
    55    83    85   ar
    56    36    37    1
    57     8     6   ar
    58    62    65    1
    59    33    32    1
    60    33    35    1
    61    17    14   am
    62    14    13    1
    63    82    84   ar
    64    42    41    1
    65    37    40    1
    66    13    16    1
    67    87    88    1
    68    11     9   ar
    69    85    86   ar
    70    54    53   ar
    71    40    41    1
    72    49    48    1
    73    49    51   ar
    74    89    88    1
    75    89    90    2
    76    84    86   ar
    77     2     1    1
    78     2     5    1
    79    65    66    1
    80    88    91    1
    81     6     5    1
    82     6     7   ar
    83    91    92    1
    84     9     7   ar
    85    53    51   ar
    86   101    99    1
    87    97    98    2
    88    97    96    1
    89    99    96    1
    90    99   100    1
    91    66    68   ar
    92    66    67   ar
    93   102   100    1
    94    94    92    1
    95    68    70   ar
    96    92    93    1
    97    96    95    1
    98    67    69   ar
    99    70    71   ar
   100    69    71   ar
   101    71    72    1
