@<TRIPOS>MOLECULE
tmp/2o01B51.pdb
 179 168 0 0 0
SMALL
GASTEIGER

@<TRIPOS>ATOM
      1  N         56.9340  -24.8570   16.6000 N.3    28  HIS28      -0.1241
      2  CA        56.0660  -25.1210   17.7410 C.3    28  HIS28       0.1621
      3  C         54.6340  -25.3070   17.1990 C.2    28  HIS28       0.2264
      4  O         53.6700  -24.7320   17.7430 O.2    28  HIS28      -0.2867
      5  CB        56.0890  -23.9940   18.8000 C.3    28  HIS28       0.0745
      6  CG        57.4480  -23.6500   19.3460 C.ar   28  HIS28       0.0817
      7  ND1       57.6620  -22.5410   20.1410 N.ar   28  HIS28      -0.2268
      8  CD2       58.6530  -24.2590   19.2280 C.ar   28  HIS28       0.1154
      9  CE1       58.9340  -22.4790   20.4860 C.ar   28  HIS28       0.1986
     10  NE2       59.5570  -23.5130   19.9500 N.ar   28  HIS28      -0.2212
     11  N         50.5510  -29.4060   17.6290 N.3    31  GLU31      -0.1245
     12  CA        49.1180  -29.7690   17.7980 C.3    31  GLU31       0.1567
     13  C         48.4220  -30.1540   16.4790 C.2    31  GLU31       0.2260
     14  O         47.1800  -30.1700   16.4110 O.2    31  GLU31      -0.2867
     15  CB        48.3580  -28.6280   18.5130 C.3    31  GLU31       0.0388
     16  CG        46.8920  -28.8680   18.9280 C.3    31  GLU31       0.1160
     17  CD        46.1240  -27.5410   19.0360 C.2    31  GLU31       0.3649
     18  OE1       44.9080  -27.5000   19.3760 O.co2  31  GLU31      -0.2457
     19  OE2       46.7530  -26.4970   18.7650 O.co2  31  GLU31      -0.2457
     20  N         51.3390  -33.4760   23.1620 N.3    41  LEU41      -0.1245
     21  CA        51.3700  -32.0060   23.1560 C.3    41  LEU41       0.1561
     22  C         51.0130  -31.4300   24.5350 C.2    41  LEU41       0.2260
     23  O         51.7450  -30.5640   25.0480 O.2    41  LEU41      -0.2867
     24  CB        50.4640  -31.4080   22.0730 C.3    41  LEU41       0.0270
     25  CG        49.1830  -30.7830   22.6060 C.3    41  LEU41       0.0019
     26  CD1       49.0220  -29.3870   22.0230 C.3    41  LEU41       0.0001
     27  CD2       48.0000  -31.6900   22.3390 C.3    41  LEU41       0.0001
     28  N         53.7260  -29.0580   26.1980 N.3    45  ILE45      -0.1245
     29  CA        53.6950  -27.7160   26.7040 C.3    45  ILE45       0.1561
     30  C         54.3100  -27.6860   28.1060 C.2    45  ILE45       0.2260
     31  O         55.2200  -26.9030   28.3450 O.2    45  ILE45      -0.2867
     32  CB        52.3030  -27.0610   26.7030 C.3    45  ILE45       0.0252
     33  CG1       51.4250  -27.5690   25.5600 C.3    45  ILE45       0.0019
     34  CG2       52.4690  -25.5430   26.6120 C.3    45  ILE45       0.0019
     35  CD1       49.9300  -27.2540   25.7520 C.3    45  ILE45       0.0001
     36  N         57.7770  -27.6120   28.3890 N.3    48  SER48      -0.1202
     37  CA        57.9950  -26.4730   27.5160 C.3    48  SER48       0.2020
     38  C         57.8030  -25.2670   28.3940 C.2    48  SER48       0.2618
     39  O         58.7710  -24.5710   28.7170 O.2    48  SER48      -0.2717
     40  CB        56.9960  -26.4540   26.3580 C.3    48  SER48       0.2103
     41  OG        55.8010  -25.7610   26.7200 O.3    48  SER48      -0.2182
     42  N         56.5600  -25.0700   28.8390 N.am   49  HIS49      -0.1975
     43  CA        56.2110  -23.8240   29.5110 C.3    49  HIS49       0.1656
     44  C         56.4620  -23.7780   31.0170 C.2    49  HIS49       0.2291
     45  O         55.9380  -22.9200   31.7090 O.2    49  HIS49      -0.2864
     46  CB        54.8730  -23.1940   29.0220 C.3    49  HIS49       0.0771
     47  CG        53.6840  -23.4840   29.8820 C.ar   49  HIS49       0.0820
     48  ND1       53.6850  -23.2950   31.2440 N.ar   49  HIS49      -0.2267
     49  CD2       52.4350  -23.8840   29.5570 C.ar   49  HIS49       0.1154
     50  CE1       52.5030  -23.6150   31.7300 C.ar   49  HIS49       0.1986
     51  NE2       51.7230  -23.9660   30.7250 N.ar   49  HIS49      -0.2212
     52  N         60.9900  -22.0300   29.6350 N.3    52  GLN52      -0.1231
     53  CA        61.3950  -20.6250   29.5210 C.3    52  GLN52       0.1698
     54  C         61.3650  -19.9280   30.8980 C.2    52  GLN52       0.2592
     55  O         62.2780  -19.1330   31.2170 O.2    52  GLN52      -0.2718
     56  CB        60.6850  -19.8660   28.3620 C.3    52  GLN52       0.0381
     57  CG        59.6130  -18.8260   28.7160 C.3    52  GLN52       0.0905
     58  CD        58.2260  -19.4280   28.8390 C.2    52  GLN52       0.2608
     59  OE1       57.8450  -20.3380   28.0960 O.2    52  GLN52      -0.2717
     60  NE2       57.4590  -18.9190   29.7890 N.am   52  GLN52      -0.0878
     61  N         60.3570  -20.2680   31.7180 N.am   53  LEU53      -0.1980
     62  CA        60.3430  -19.8640   33.1120 C.3    53  LEU53       0.1596
     63  C         61.7730  -19.8610   33.5870 C.2    53  LEU53       0.2287
     64  O         62.1320  -19.1000   34.4810 O.2    53  LEU53      -0.2864
     65  CB        59.5390  -20.8330   33.9590 C.3    53  LEU53       0.0297
     66  CG        58.0310  -20.6180   34.0740 C.3    53  LEU53       0.0022
     67  CD1       57.5150  -21.0480   35.4740 C.3    53  LEU53       0.0001
     68  CD2       57.6210  -19.1730   33.7570 C.3    53  LEU53       0.0001
     69  N         63.5280  -16.6800   31.7530 N.3    56  ILE56      -0.1245
     70  CA        62.9390  -15.4780   32.3520 C.3    56  ILE56       0.1561
     71  C         63.6670  -15.2710   33.6680 C.2    56  ILE56       0.2260
     72  O         64.0860  -14.1690   33.9940 O.2    56  ILE56      -0.2867
     73  CB        61.4180  -15.5720   32.5710 C.3    56  ILE56       0.0252
     74  CG1       60.7490  -16.2700   31.3780 C.3    56  ILE56       0.0019
     75  CG2       60.8480  -14.1860   32.7810 C.3    56  ILE56       0.0019
     76  CD1       59.3490  -16.7770   31.6430 C.3    56  ILE56       0.0001
     77  N         42.4790  -26.7600   38.8050 N.3   173  ARG173     -0.1245
     78  CA        43.2410  -25.8500   37.9530 C.3   173  ARG173      0.1563
     79  C         42.2850  -24.6850   37.7010 C.2   173  ARG173      0.2260
     80  O         41.5350  -24.7030   36.7210 O.2   173  ARG173     -0.2867
     81  CB        43.6690  -26.5880   36.6610 C.3   173  ARG173      0.0307
     82  CG        43.9410  -25.8000   35.3440 C.3   173  ARG173      0.0489
     83  CD        45.2110  -24.9170   35.2850 C.3   173  ARG173      0.2205
     84  NE        46.5290  -25.5700   35.2150 N.pl3 173  ARG173     -0.0865
     85  CZ        46.9160  -26.7090   35.8110 C.cat 173  ARG173      0.5346
     86  NH1       46.1010  -27.4400   36.5500 N.pl3 173  ARG173      0.1354
     87  NH2       48.1700  -27.1220   35.6800 N.pl3 173  ARG173      0.1354
     88  N         43.1540  -22.8720   42.2040 N.3   177  HIS177     -0.1241
     89  CA        44.2630  -22.1640   41.5310 C.3   177  HIS177      0.1621
     90  C         44.1350  -20.6570   41.2780 C.2   177  HIS177      0.2264
     91  O         44.8900  -20.1000   40.4710 O.2   177  HIS177     -0.2867
     92  CB        44.8690  -22.8810   40.3030 C.3   177  HIS177      0.0745
     93  CG        46.2870  -22.4520   40.0300 C.ar  177  HIS177      0.0817
     94  ND1       46.8140  -22.3240   38.7630 N.ar  177  HIS177     -0.2268
     95  CD2       47.2720  -22.0670   40.8800 C.ar  177  HIS177      0.1154
     96  CE1       48.0670  -21.9130   38.8450 C.ar  177  HIS177      0.1986
     97  NE2       48.3670  -21.7470   40.1190 N.ar  177  HIS177     -0.2212
     98  N         47.8670  -19.2800   43.3130 N.3   181  LEU181     -0.1245
     99  CA        48.5670  -18.5500   42.2610 C.3   181  LEU181      0.1561
    100  C         48.8890  -17.1180   42.6390 C.2   181  LEU181      0.2260
    101  O         50.0700  -16.7580   42.6880 O.2   181  LEU181     -0.2867
    102  CB        47.8060  -18.5880   40.9350 C.3   181  LEU181      0.0270
    103  CG        48.6250  -18.2860   39.6560 C.3   181  LEU181      0.0019
    104  CD1       48.4300  -16.8760   39.1290 C.3   181  LEU181      0.0001
    105  CD2       50.1140  -18.5910   39.8390 C.3   181  LEU181      0.0001
    106  N         41.8130  -26.2030   24.0340 N.3   329  ILE329     -0.1231
    107  CA        42.9340  -25.4710   24.6520 C.3   329  ILE329      0.1692
    108  C         42.8370  -24.0380   24.1940 C.2   329  ILE329      0.2592
    109  O         42.4180  -23.1870   24.9700 O.2   329  ILE329     -0.2718
    110  CB        44.3120  -25.9930   24.2170 C.3   329  ILE329      0.0266
    111  CG1       44.9220  -26.9120   25.2570 C.3   329  ILE329      0.0019
    112  CG2       45.2490  -24.8570   24.0570 C.3   329  ILE329      0.0020
    113  CD1       46.2550  -27.5290   24.7970 C.3   329  ILE329      0.0001
    114  N         43.2030  -23.7720   22.9390 N.am  330  HIS330     -0.1976
    115  CA        42.9170  -22.4840   22.3630 C.3   330  HIS330      0.1656
    116  C         41.6410  -22.0480   23.0910 C.2   330  HIS330      0.2291
    117  O         40.6730  -22.8220   23.1410 O.2   330  HIS330     -0.2864
    118  CB        42.6900  -22.6160   20.8560 C.3   330  HIS330      0.0771
    119  CG        43.9240  -22.9860   20.0820 C.ar  330  HIS330      0.0820
    120  ND1       44.2250  -22.4410   18.8500 N.ar  330  HIS330     -0.2267
    121  CD2       44.9280  -23.8530   20.3600 C.ar  330  HIS330      0.1154
    122  CE1       45.3560  -22.9550   18.4020 C.ar  330  HIS330      0.1986
    123  NE2       45.8030  -23.8160   19.2990 N.ar  330  HIS330     -0.2212
    124  N         42.5040  -21.3080   26.2250 N.3   332  GLN332     -0.1231
    125  CA        43.7410  -21.2810   27.0120 C.3   332  GLN332      0.1698
    126  C         44.8970  -20.8500   26.0630 C.2   332  GLN332      0.2592
    127  O         45.9320  -21.5370   25.8800 O.2   332  GLN332     -0.2718
    128  CB        44.0060  -22.6560   27.6300 C.3   332  GLN332      0.0381
    129  CG        42.7390  -23.4000   28.1120 C.3   332  GLN332      0.0905
    130  CD        42.8890  -24.9270   28.1750 C.2   332  GLN332      0.2608
    131  OE1       41.8840  -25.6360   28.2150 O.2   332  GLN332     -0.2717
    132  NE2       44.1330  -25.4300   28.1880 N.am  332  GLN332     -0.0878
    133  N         44.6770  -19.6760   25.4770 N.am  333  LEU333     -0.1980
    134  CA        45.4810  -19.0700   24.4420 C.3   333  LEU333      0.1596
    135  C         44.4160  -18.6090   23.4720 C.2   333  LEU333      0.2287
    136  O         44.6930  -18.1980   22.3780 O.2   333  LEU333     -0.2864
    137  CB        46.4780  -20.0570   23.8110 C.3   333  LEU333      0.0297
    138  CG        47.8660  -19.5770   23.3220 C.3   333  LEU333      0.0022
    139  CD1       47.8190  -18.2370   22.5760 C.3   333  LEU333      0.0001
    140  CD2       48.8870  -19.4560   24.4230 C.3   333  LEU333      0.0001
    141  N         44.0810  -16.3120   27.4240 N.3   336  ALA336     -0.1231
    142  CA        45.3130  -16.0300   28.1800 C.3   336  ALA336      0.1694
    143  C         46.4670  -15.5620   27.2470 C.2   336  ALA336      0.2591
    144  O         47.6590  -15.8850   27.4080 O.2   336  ALA336     -0.2718
    145  CB        45.6970  -17.2100   29.0540 C.3   336  ALA336      0.0304
    146  N         46.0260  -14.8560   26.2140 N.am  337  LEU337     -0.1980
    147  CA        46.5600  -13.5290   25.9470 C.3   337  LEU337      0.1596
    148  C         45.3640  -12.5770   25.9160 C.2   337  LEU337      0.2287
    149  O         45.4570  -11.4400   26.3690 O.2   337  LEU337     -0.2864
    150  CB        47.3740  -13.4580   24.6610 C.3   337  LEU337      0.0297
    151  CG        47.1260  -14.4270   23.5090 C.3   337  LEU337      0.0022
    152  CD1       45.6540  -14.8640   23.3170 C.3   337  LEU337      0.0001
    153  CD2       47.6710  -13.7910   22.2570 C.3   337  LEU337      0.0001
    154  N         44.8110  -11.0680   29.5280 N.3   340  LEU340     -0.1245
    155  CA        46.1200  -10.5080   29.7970 C.3   340  LEU340      0.1561
    156  C         46.3630   -9.6900   28.5390 C.2   340  LEU340      0.2260
    157  O         47.4540   -9.1540   28.3440 O.2   340  LEU340     -0.2867
    158  CB        47.1880  -11.5940   30.0580 C.3   340  LEU340      0.0270
    159  CG        48.6910  -11.5580   29.6400 C.3   340  LEU340      0.0019
    160  CD1       49.3070  -10.1850   29.6170 C.3   340  LEU340      0.0001
    161  CD2       49.5520  -12.4760   30.5280 C.3   340  LEU340      0.0001
    162  N         50.0700   -8.9360   22.2460 N.3   381  ILE381     -0.1245
    163  CA        49.2960   -9.8890   23.0050 C.3   381  ILE381      0.1561
    164  C         47.8640   -9.5970   22.6350 C.2   381  ILE381      0.2260
    165  O         47.2250  -10.4360   22.0130 O.2   381  ILE381     -0.2867
    166  CB        49.5930   -9.8150   24.5040 C.3   381  ILE381      0.0252
    167  CG1       51.0650  -10.1790   24.7260 C.3   381  ILE381      0.0019
    168  CG2       48.7060  -10.7780   25.2820 C.3   381  ILE381      0.0019
    169  CD1       51.5330  -10.1410   26.1570 C.3   381  ILE381      0.0001
    170  N         44.2520  -17.2650   17.7770 N.3   388  HIS388     -0.1241
    171  CA        43.7440  -18.4020   18.5000 C.3   388  HIS388      0.1621
    172  C         42.3100  -18.1290   18.8850 C.2   388  HIS388      0.2264
    173  O         41.9700  -18.1890   20.0680 O.2   388  HIS388     -0.2867
    174  CB        44.5220  -18.6590   19.7430 C.3   388  HIS388      0.0745
    175  CG        45.9570  -18.9570   19.5040 C.ar  388  HIS388      0.0817
    176  ND1       46.4730  -19.1770   18.2470 N.ar  388  HIS388     -0.2268
    177  CD2       46.9860  -19.1060   20.3720 C.ar  388  HIS388      0.1154
    178  CE1       47.7670  -19.4250   18.3540 C.ar  388  HIS388      0.1986
    179  NE2       48.1040  -19.3890   19.6330 N.ar  388  HIS388     -0.2212
@<TRIPOS>BOND
     1    14    13    2
     2    13    12    1
     3     1     2    1
     4     3     2    1
     5     3     4    2
     6    11    12    1
     7     2     5    1
     8   170   171    1
     9    12    15    1
    10   176   178   ar
    11   176   175   ar
    12   178   179   ar
    13   122   120   ar
    14   122   123   ar
    15   171   172    1
    16   171   174    1
    17    15    16    1
    18    19    17   ar
    19     5     6    1
    20   120   119   ar
    21   172   173    2
    22    16    17    1
    23    17    18   ar
    24     8     6   ar
    25     8    10   ar
    26   123   121   ar
    27     6     7   ar
    28   175   174    1
    29   175   177   ar
    30   179   177   ar
    31    10     9   ar
    32   119   121   ar
    33   119   118    1
    34     7     9   ar
    35   118   115    1
    36   165   164    2
    37    26    25    1
    38    24    25    1
    39    24    21    1
    40   162   163    1
    41   153   151    1
    42    27    25    1
    43   115   114    1
    44   115   116    1
    45   136   135    2
    46   139   138    1
    47   164   163    1
    48   114   108   am
    49   163   166    1
    50   116   117    2
    51    21    20    1
    52    21    22    1
    53   152   151    1
    54   138   137    1
    55   138   140    1
    56   135   134    1
    57   151   150    1
    58   137   134    1
    59   106   107    1
    60   112   110    1
    61   108   107    1
    62   108   109    2
    63   110   107    1
    64   110   111    1
    65   134   133    1
    66   166   167    1
    67   166   168    1
    68    22    23    2
    69   150   147    1
    70   167   169    1
    71   113   111    1
    72   133   126   am
    73    33    35    1
    74    33    32    1
    75   127   126    2
    76   148   147    1
    77   148   149    2
    78   147   146    1
    79   126   125    1
    80    28    29    1
    81   146   143   am
    82   124   125    1
    83    40    41    1
    84    40    37    1
    85    34    32    1
    86    32    29    1
    87    29    30    1
    88   125   128    1
    89   143   144    2
    90   143   142    1
    91   141   142    1
    92    37    36    1
    93    37    38    1
    94   128   129    1
    95    59    58    2
    96    30    31    2
    97   129   130    1
    98   130   132   am
    99   130   131    2
   100   142   145    1
   101   157   156    2
   102    56    57    1
   103    56    53    1
   104    38    39    2
   105    38    42   am
   106   156   155    1
   107    57    58    1
   108    58    60   am
   109    42    43    1
   110    46    43    1
   111    46    47    1
   112    43    44    1
   113    53    52    1
   114    53    54    1
   115   154   155    1
   116    49    47   ar
   117    49    51   ar
   118   160   159    1
   119   159   158    1
   120   159   161    1
   121   155   158    1
   122    47    48   ar
   123    51    50   ar
   124    54    55    2
   125    54    61   am
   126    44    45    2
   127    48    50   ar
   128    74    76    1
   129    74    73    1
   130    61    62    1
   131    69    70    1
   132    70    73    1
   133    70    71    1
   134    73    75    1
   135    62    63    1
   136    62    65    1
   137    63    64    2
   138    71    72    2
   139    68    66    1
   140    65    66    1
   141    66    67    1
   142    84    83    1
   143    84    85    2
   144    83    82    1
   145    82    81    1
   146    87    85    1
   147    85    86    1
   148    81    78    1
   149    80    79    2
   150    79    78    1
   151    78    77    1
   152    94    96   ar
   153    94    93   ar
   154    96    97   ar
   155   104   103    1
   156   103   105    1
   157   103   102    1
   158    93    92    1
   159    93    95   ar
   160    97    95   ar
   161    92    89    1
   162    91    90    2
   163   102    99    1
   164    90    89    1
   165    89    88    1
   166    99   100    1
   167    99    98    1
   168   100   101    2
