@<TRIPOS>MOLECULE
tmp/2o01B32.pdb
 80 76 0 0 0
SMALL
GASTEIGER

@<TRIPOS>ATOM
      1  N         63.8190  -16.4280  -11.8220 N.3   673  LEU673     -0.1231
      2  CA        65.1040  -15.7150  -11.8340 C.3   673  LEU673      0.1693
      3  C         66.1790  -16.5620  -11.1490 C.2   673  LEU673      0.2591
      4  O         67.2290  -16.8280  -11.7330 O.2   673  LEU673     -0.2718
      5  CB        64.9560  -14.3570  -11.1210 C.3   673  LEU673      0.0284
      6  CG        66.0430  -13.2690  -11.0590 C.3   673  LEU673      0.0019
      7  CD1       65.4700  -12.0840  -10.3090 C.3   673  LEU673      0.0001
      8  CD2       67.3640  -13.7050  -10.4060 C.3   673  LEU673      0.0001
      9  N         65.8970  -16.9910   -9.9170 N.am  674  ILE674     -0.1980
     10  CA        66.8790  -17.7120   -9.1220 C.3   674  ILE674      0.1595
     11  C         67.1830  -19.0820   -9.7000 C.2   674  ILE674      0.2287
     12  O         68.0400  -19.8030   -9.1870 O.2   674  ILE674     -0.2864
     13  CB        66.5690  -17.7110   -7.5880 C.3   674  ILE674      0.0276
     14  CG1       65.7160  -18.9180   -7.1250 C.3   674  ILE674      0.0022
     15  CG2       66.0090  -16.3280   -7.1540 C.3   674  ILE674      0.0022
     16  CD1       65.6520  -19.0610   -5.5540 C.3   674  ILE674      0.0001
     17  N         70.2590  -18.5560  -12.9280 N.3   677  LEU677     -0.1245
     18  CA        71.6040  -18.3900  -12.4190 C.3   677  LEU677      0.1561
     19  C         71.9090  -19.4450  -11.3630 C.2   677  LEU677      0.2260
     20  O         73.0930  -19.7630  -11.1210 O.2   677  LEU677     -0.2867
     21  CB        71.8080  -16.9900  -11.8690 C.3   677  LEU677      0.0270
     22  CG        71.0530  -16.5740  -10.6110 C.3   677  LEU677      0.0019
     23  CD1       69.5970  -16.2760  -10.9280 C.3   677  LEU677      0.0001
     24  CD2       71.2340  -17.5630   -9.4410 C.3   677  LEU677      0.0001
     25  N         73.6770  -20.7160  -13.8270 N.3   680  ALA680     -0.1231
     26  CA        74.9200  -20.0280  -14.1770 C.3   680  ALA680      0.1694
     27  C         76.0210  -20.5950  -13.2960 C.2   680  ALA680      0.2592
     28  O         77.0330  -21.0650  -13.8070 O.2   680  ALA680     -0.2718
     29  CB        74.8000  -18.5030  -14.0260 C.3   680  ALA680      0.0304
     30  N         75.8190  -20.6240  -11.9780 N.am  681  HIS681     -0.1976
     31  CA        76.8700  -21.2460  -11.1760 C.3   681  HIS681      0.1656
     32  C         76.8940  -22.8000  -11.1970 C.2   681  HIS681      0.2291
     33  O         77.3120  -23.4730  -10.2230 O.2   681  HIS681     -0.2864
     34  CB        77.1530  -20.5810   -9.8040 C.3   681  HIS681      0.0771
     35  CG        75.9560  -20.0930   -9.0480 C.ar  681  HIS681      0.0820
     36  ND1       75.8740  -20.1800   -7.6690 N.ar  681  HIS681     -0.2267
     37  CD2       74.8320  -19.4600   -9.4500 C.ar  681  HIS681      0.1154
     38  CE1       74.7390  -19.6420   -7.2590 C.ar  681  HIS681      0.1986
     39  NE2       74.0880  -19.1950   -8.3190 N.ar  681  HIS681     -0.2212
     40  N         80.0720  -22.8390  -15.0500 N.3   684  THR684     -0.1218
     41  CA        81.3470  -22.1350  -14.8150 C.3   684  THR684      0.1862
     42  C         82.4330  -22.9200  -14.0710 C.2   684  THR684      0.2287
     43  O         82.3670  -23.0970  -12.8600 O.2   684  THR684     -0.2866
     44  CB        81.1440  -20.7680  -14.1060 C.3   684  THR684      0.1770
     45  OG1       82.3290  -20.4360  -13.3580 O.3   684  THR684     -0.2211
     46  CG2       79.9520  -20.8070  -13.1570 C.3   684  THR684      0.0375
     47  N         84.9370  -23.3240  -10.0650 N.3   687  ALA687     -0.1245
     48  CA        83.8950  -23.4770   -9.0940 C.3   687  ALA687      0.1562
     49  C         82.8190  -24.2700   -9.7990 C.2   687  ALA687      0.2260
     50  O         81.6420  -23.8850   -9.8180 O.2   687  ALA687     -0.2867
     51  CB        83.3790  -22.1140   -8.5830 C.3   687  ALA687      0.0290
     52  N         81.1840  -28.4080   -7.2000 N.3   690  ILE690     -0.1245
     53  CA        80.4340  -27.8460   -6.0410 C.3   690  ILE690      0.1561
     54  C         78.8880  -28.0070   -6.1890 C.2   690  ILE690      0.2260
     55  O         78.2050  -27.0770   -6.5850 O.2   690  ILE690     -0.2867
     56  CB        80.8060  -26.3120   -5.8160 C.3   690  ILE690      0.0252
     57  CG1       81.2540  -25.6410   -7.1350 C.3   690  ILE690      0.0019
     58  CG2       81.8920  -26.1230   -4.7360 C.3   690  ILE690      0.0019
     59  CD1       80.1140  -25.3370   -8.1540 C.3   690  ILE690      0.0001
     60  N         76.1780  -28.7660   -4.1050 N.3   692  TRP692     -0.1241
     61  CA        75.2740  -28.1940   -3.0870 C.3   692  TRP692      0.1605
     62  C         74.2370  -29.1270   -2.5070 C.2   692  TRP692      0.2264
     63  O         73.5580  -29.8200   -3.2640 O.2   692  TRP692     -0.2867
     64  CB        74.6230  -26.9240   -3.5970 C.3   692  TRP692      0.0550
     65  CG        73.5220  -27.0430   -4.6050 C.ar  692  TRP692      0.0003
     66  CD1       72.3590  -27.7290   -4.4720 C.ar  692  TRP692      0.0946
     67  CD2       73.4310  -26.3470   -5.8510 C.ar  692  TRP692      0.0152
     68  NE1       71.5600  -27.5300   -5.5600 N.ar  692  TRP692     -0.2442
     69  CE2       72.1980  -26.6870   -6.4270 C.ar  692  TRP692      0.0810
     70  CE3       74.2690  -25.4630   -6.5260 C.ar  692  TRP692      0.0012
     71  CZ2       71.7940  -26.2010   -7.6590 C.ar  692  TRP692      0.0191
     72  CZ3       73.8750  -24.9830   -7.7390 C.ar  692  TRP692      0.0001
     73  CH2       72.6420  -25.3490   -8.3000 C.ar  692  TRP692      0.0015
     74  N         68.3210  -24.7400   -4.0840 N.3   696  PRO696     -0.2116
     75  CA        67.8710  -23.3570   -3.9570 C.3   696  PRO696      0.1372
     76  C         66.5340  -23.0890   -4.6170 C.2   696  PRO696      0.2244
     77  O         66.4590  -23.0900   -5.8520 O.2   696  PRO696     -0.2868
     78  CB        68.9320  -22.5850   -4.7150 C.3   696  PRO696      0.0268
     79  CG        70.0990  -23.4900   -4.8120 C.3   696  PRO696      0.0207
     80  CD        69.7690  -24.8280   -4.3010 C.3   696  PRO696      0.0892
@<TRIPOS>BOND
     1    40    41    1
     2    41    44    1
     3    41    42    1
     4    26    29    1
     5    26    25    1
     6    26    27    1
     7    44    45    1
     8    44    46    1
     9    42    43    2
    10    28    27    2
    11    27    30   am
    12    17    18    1
    13    18    21    1
    14    18    19    1
    15    30    31    1
    16    21    22    1
    17     2     1    1
    18     2     3    1
    19     2     5    1
    20     4     3    2
    21    19    20    2
    22    32    31    1
    23    32    33    2
    24    31    34    1
    25     3     9   am
    26     5     6    1
    27     6     8    1
    28     6     7    1
    29    23    22    1
    30    22    24    1
    31    47    48    1
    32     9    10    1
    33    50    49    2
    34    34    35    1
    35    49    48    1
    36    11    12    2
    37    11    10    1
    38    37    35   ar
    39    37    39   ar
    40    10    13    1
    41    48    51    1
    42    35    36   ar
    43    39    38   ar
    44    73    72   ar
    45    73    71   ar
    46    59    57    1
    47    72    70   ar
    48    36    38   ar
    49    71    69   ar
    50    13    15    1
    51    13    14    1
    52    52    53    1
    53    57    56    1
    54    14    16    1
    55    55    54    2
    56    70    67   ar
    57    69    67   ar
    58    69    68   ar
    59    54    53    1
    60    53    56    1
    61    77    76    2
    62    67    65   ar
    63    56    58    1
    64    68    66   ar
    65    79    78    1
    66    79    80    1
    67    78    75    1
    68    76    75    1
    69    65    66   ar
    70    65    64    1
    71    80    74    1
    72    60    61    1
    73    74    75    1
    74    64    61    1
    75    63    62    2
    76    61    62    1
