@<TRIPOS>MOLECULE
tmp/2o01B20.pdb
 199 197 0 0 0
SMALL
GASTEIGER

@<TRIPOS>ATOM
      1  N         66.8350  -14.3590   33.1500 N.3    59  TRP59      -0.1241
      2  CA        66.6490  -13.0930   32.4400 C.3    59  TRP59       0.1605
      3  C         67.2180  -11.9580   33.2650 C.2    59  TRP59       0.2264
      4  O         67.3920  -10.8530   32.7750 O.2    59  TRP59      -0.2867
      5  CB        65.1520  -12.8440   32.2830 C.3    59  TRP59       0.0550
      6  CG        64.7000  -11.8020   31.3150 C.ar   59  TRP59       0.0003
      7  CD1       65.3170  -11.4190   30.1580 C.ar   59  TRP59       0.0946
      8  CD2       63.4730  -11.0490   31.3890 C.ar   59  TRP59       0.0152
      9  NE1       64.5620  -10.4510   29.5200 N.ar   59  TRP59      -0.2442
     10  CE2       63.4220  -10.2160   30.2490 C.ar   59  TRP59       0.0810
     11  CE3       62.4100  -11.0020   32.3050 C.ar   59  TRP59       0.0012
     12  CZ2       62.3440   -9.3440   30.0030 C.ar   59  TRP59       0.0191
     13  CZ3       61.3400  -10.1300   32.0550 C.ar   59  TRP59       0.0001
     14  CH2       61.3200   -9.3210   30.9200 C.ar   59  TRP59       0.0015
     15  N         71.4850   -9.4730   34.6450 N.3    63  ASN63      -0.1240
     16  CA        71.0380   -8.0800   34.7660 C.3    63  ASN63       0.1653
     17  C         70.7500   -7.5190   36.1900 C.2    63  ASN63       0.2266
     18  O         71.0160   -6.3470   36.4330 O.2    63  ASN63      -0.2867
     19  CB        69.9020   -7.7990   33.7830 C.3    63  ASN63       0.1155
     20  CG        69.1810   -9.0580   33.3150 C.2    63  ASN63       0.2627
     21  OD1       69.6740  -10.1820   33.4190 O.2    63  ASN63      -0.2716
     22  ND2       67.9860   -8.8540   32.7760 N.am   63  ASN63      -0.0877
     23  N         67.0230    2.3190   30.9150 N.3   116  TYR116     -0.1227
     24  CA        65.6890    2.9070   30.8140 C.3   116  TYR116      0.1736
     25  C         64.6270    1.8870   31.2450 C.2   116  TYR116      0.2596
     26  O         63.4270    2.1430   31.1490 O.2   116  TYR116     -0.2718
     27  CB        65.4380    3.4250   29.3670 C.3   116  TYR116      0.0548
     28  CG        66.3340    4.5870   29.0080 C.ar  116  TYR116     -0.0200
     29  CD1       67.4390    4.4160   28.1910 C.ar  116  TYR116     -0.0009
     30  CD2       66.1020    5.8540   29.5360 C.ar  116  TYR116     -0.0009
     31  CE1       68.2870    5.4900   27.8850 C.ar  116  TYR116      0.0417
     32  CE2       66.9410    6.9290   29.2440 C.ar  116  TYR116      0.0417
     33  CZ        68.0260    6.7460   28.4210 C.ar  116  TYR116      0.1957
     34  OH        68.8320    7.8350   28.1570 O.3   116  TYR116     -0.2866
     35  N         65.0820    0.7410   31.7450 N.am  117  SER117     -0.1952
     36  CA        64.1870   -0.3890   32.0820 C.3   117  SER117      0.1924
     37  C         63.3150   -0.1460   33.3250 C.2   117  SER117      0.2314
     38  O         62.5940   -1.0550   33.7550 O.2   117  SER117     -0.2863
     39  CB        64.9770   -1.7190   32.2200 C.3   117  SER117      0.2116
     40  OG        64.1480   -2.8660   32.0180 O.3   117  SER117     -0.2180
     41  N         62.6410   -0.4570   36.5170 N.3   119  VAL119     -0.1245
     42  CA        63.2520   -1.4810   37.3770 C.3   119  VAL119      0.1561
     43  C         64.2060   -0.9840   38.4770 C.2   119  VAL119      0.2260
     44  O         63.9310   -1.1760   39.6450 O.2   119  VAL119     -0.2867
     45  CB        63.8660   -2.6580   36.4900 C.3   119  VAL119      0.0252
     46  CG1       65.2070   -3.1710   37.0090 C.3   119  VAL119      0.0019
     47  CG2       62.8970   -3.8100   36.3740 C.3   119  VAL119      0.0019
     48  N         58.3550    7.4920   27.9000 N.3   368  ALA368     -0.1231
     49  CA        59.4560    7.1620   27.0390 C.3   368  ALA368      0.1694
     50  C         59.5620    5.6270   27.2100 C.2   368  ALA368      0.2592
     51  O         58.5410    4.9130   27.0330 O.2   368  ALA368     -0.2718
     52  CB        60.7340    7.8820   27.4510 C.3   368  ALA368      0.0304
     53  N         60.7580    5.1390   27.5700 N.am  369  ALA369     -0.1966
     54  CA        61.0450    3.7140   27.8020 C.3   369  ALA369      0.1728
     55  C         59.8480    2.8290   28.2500 C.2   369  ALA369      0.2616
     56  O         59.0040    2.4210   27.4290 O.2   369  ALA369     -0.2715
     57  CB        62.1990    3.6040   28.7900 C.3   369  ALA369      0.0334
     58  N         59.7810    2.5780   29.5600 N.am  370  LEU370     -0.1977
     59  CA        58.8460    1.6280   30.1810 C.3   370  LEU370      0.1596
     60  C         57.3440    1.8150   29.9620 C.2   370  LEU370      0.2287
     61  O         56.5430    1.3510   30.8000 O.2   370  LEU370     -0.2864
     62  CB        59.0670    1.6030   31.6840 C.3   370  LEU370      0.0297
     63  CG        59.8460    0.4620   32.3250 C.3   370  LEU370      0.0022
     64  CD1       59.9600    0.7910   33.7970 C.3   370  LEU370      0.0001
     65  CD2       59.1780   -0.8820   32.1390 C.3   370  LEU370      0.0001
     66  N         55.5090    2.5980   26.1690 N.3   372  THR372     -0.1203
     67  CA        55.1320    2.0860   24.8050 C.3   372  THR372      0.1994
     68  C         55.2690    0.5830   24.7040 C.2   372  THR372      0.2617
     69  O         54.2920   -0.1070   24.4720 O.2   372  THR372     -0.2717
     70  CB        55.9480    2.6960   23.6540 C.3   372  THR372      0.1784
     71  OG1       56.2880    4.0530   23.9530 O.3   372  THR372     -0.2211
     72  CG2       55.1350    2.6430   22.3730 C.3   372  THR372      0.0376
     73  N         56.5000    0.1060   24.8620 N.am  373  HIS373     -0.1975
     74  CA        56.7490   -1.2340   25.3610 C.3   373  HIS373      0.1656
     75  C         55.4880   -1.8270   25.9980 C.2   373  HIS373      0.2291
     76  O         54.7150   -2.5250   25.3430 O.2   373  HIS373     -0.2864
     77  CB        57.8480   -1.1710   26.4190 C.3   373  HIS373      0.0771
     78  CG        58.1010   -2.4730   27.0990 C.ar  373  HIS373      0.0820
     79  ND1       57.2650   -3.5620   26.9550 N.ar  373  HIS373     -0.2267
     80  CD2       59.0810   -2.8580   27.9470 C.ar  373  HIS373      0.1154
     81  CE1       57.7220   -4.5640   27.6810 C.ar  373  HIS373      0.1986
     82  NE2       58.8230   -4.1650   28.2950 N.ar  373  HIS373     -0.2212
     83  N         53.1000   -2.0540   23.4080 N.3   376  TYR376     -0.1227
     84  CA        53.2620   -2.8960   22.2070 C.3   376  TYR376      0.1736
     85  C         52.9450   -4.3740   22.3960 C.2   376  TYR376      0.2595
     86  O         52.9020   -5.1640   21.4360 O.2   376  TYR376     -0.2718
     87  CB        54.6340   -2.6930   21.5540 C.3   376  TYR376      0.0548
     88  CG        54.5410   -1.6300   20.4930 C.ar  376  TYR376     -0.0200
     89  CD1       53.5270   -1.6910   19.5430 C.ar  376  TYR376     -0.0009
     90  CD2       55.4330   -0.5410   20.4530 C.ar  376  TYR376     -0.0009
     91  CE1       53.3960   -0.7210   18.5750 C.ar  376  TYR376      0.0417
     92  CE2       55.3150    0.4530   19.4820 C.ar  376  TYR376      0.0417
     93  CZ        54.2810    0.3520   18.5340 C.ar  376  TYR376      0.1957
     94  OH        54.1000    1.3060   17.5420 O.3   376  TYR376     -0.2866
     95  N         52.7040   -4.7540   23.6350 N.am  377  ILE377     -0.1980
     96  CA        52.3080   -6.1050   23.8860 C.3   377  ILE377      0.1595
     97  C         50.8030   -6.0990   24.0700 C.2   377  ILE377      0.2287
     98  O         50.1180   -7.0430   23.6730 O.2   377  ILE377     -0.2864
     99  CB        53.0820   -6.6520   25.0660 C.3   377  ILE377      0.0276
    100  CG1       54.5460   -6.2300   24.9360 C.3   377  ILE377      0.0022
    101  CG2       52.9870   -8.1500   25.1210 C.3   377  ILE377      0.0022
    102  CD1       55.1540   -6.5440   23.5730 C.3   377  ILE377      0.0001
    103  N         50.9560   -6.7660   20.5750 N.3   380  PHE380     -0.1241
    104  CA        51.4040   -8.1600   20.3250 C.3   380  PHE380      0.1605
    105  C         50.9840   -9.3010   21.3400 C.2   380  PHE380      0.2264
    106  O         51.4890  -10.4680   21.3010 O.2   380  PHE380     -0.2867
    107  CB        52.9090   -8.1380   20.1020 C.3   380  PHE380      0.0534
    108  CG        53.2980   -7.6790   18.7430 C.ar  380  PHE380     -0.0203
    109  CD1       53.7710   -6.3860   18.5440 C.ar  380  PHE380     -0.0042
    110  CD2       53.2020   -8.5530   17.6450 C.ar  380  PHE380     -0.0042
    111  CE1       54.1470   -5.9580   17.2600 C.ar  380  PHE380     -0.0003
    112  CE2       53.5750   -8.1580   16.3600 C.ar  380  PHE380     -0.0003
    113  CZ        54.0470   -6.8520   16.1610 C.ar  380  PHE380     -0.0000
    114  N         71.1700    5.7660   17.5960 N.3   645  TRP645     -0.1241
    115  CA        69.9290    5.8120   16.8020 C.3   645  TRP645      0.1605
    116  C         70.1330    6.6210   15.5320 C.2   645  TRP645      0.2264
    117  O         69.5700    6.3330   14.4770 O.2   645  TRP645     -0.2867
    118  CB        68.8680    6.4400   17.6650 C.3   645  TRP645      0.0550
    119  CG        69.4060    6.4770   18.9980 C.ar  645  TRP645      0.0003
    120  CD1       70.4450    7.2570   19.4230 C.ar  645  TRP645      0.0946
    121  CD2       69.0430    5.6510   20.0990 C.ar  645  TRP645      0.0152
    122  NE1       70.7310    6.9890   20.7380 N.ar  645  TRP645     -0.2442
    123  CE2       69.8870    6.0070   21.1800 C.ar  645  TRP645      0.0810
    124  CE3       68.0930    4.6560   20.2880 C.ar  645  TRP645      0.0012
    125  CZ2       69.7990    5.4050   22.4330 C.ar  645  TRP645      0.0191
    126  CZ3       67.9960    4.0640   21.5360 C.ar  645  TRP645      0.0001
    127  CH2       68.8490    4.4430   22.5990 C.ar  645  TRP645      0.0015
    128  N         70.9180    3.3440   14.6590 N.3   648  MET648     -0.1245
    129  CA        69.7730    2.4630   14.8580 C.3   648  MET648      0.1570
    130  C         68.6130    2.9850   14.0570 C.2   648  MET648      0.2261
    131  O         67.9250    2.2220   13.4150 O.2   648  MET648     -0.2867
    132  CB        69.3440    2.4290   16.3220 C.3   648  MET648      0.0387
    133  CG        69.8090    1.2650   17.1830 C.3   648  MET648      0.0595
    134  SD        68.9790    1.3430   18.8110 S.3   648  MET648     -0.1393
    135  CE        67.2640    1.3250   18.3190 C.3   648  MET648      0.0692
    136  N         60.1130   -1.2670   12.5740 N.3   716  TYR716     -0.1227
    137  CA        59.0730   -0.3690   13.0550 C.3   716  TYR716      0.1736
    138  C         59.0230   -0.4110   14.5530 C.2   716  TYR716      0.2595
    139  O         58.6400    0.5690   15.2030 O.2   716  TYR716     -0.2718
    140  CB        57.7090   -0.7820   12.5160 C.3   716  TYR716      0.0548
    141  CG        56.6330    0.1650   12.9100 C.ar  716  TYR716     -0.0200
    142  CD1       56.2560    0.3070   14.2590 C.ar  716  TYR716     -0.0009
    143  CD2       55.9750    0.9230   11.9490 C.ar  716  TYR716     -0.0009
    144  CE1       55.2660    1.1950   14.6380 C.ar  716  TYR716      0.0417
    145  CE2       54.9740    1.8170   12.3100 C.ar  716  TYR716      0.0417
    146  CZ        54.6280    1.9570   13.6550 C.ar  716  TYR716      0.1957
    147  OH        53.6470    2.8530   14.0100 O.3   716  TYR716     -0.2866
    148  N         59.3670   -1.5550   15.1240 N.am  717  ILE717     -0.1966
    149  CA        59.4830   -1.5380   16.5440 C.3   717  ILE717      0.1727
    150  C         60.7000   -0.6420   16.6840 C.2   717  ILE717      0.2616
    151  O         60.7200    0.2510   17.5250 O.2   717  ILE717     -0.2715
    152  CB        59.5950   -2.9330   17.2000 C.3   717  ILE717      0.0290
    153  CG1       58.5860   -3.9110   16.5580 C.3   717  ILE717      0.0022
    154  CG2       59.3520   -2.8140   18.7330 C.3   717  ILE717      0.0023
    155  CD1       59.0940   -5.3670   16.3660 C.3   717  ILE717      0.0001
    156  N         61.6620   -0.7820   15.7760 N.am  718  PHE718     -0.1974
    157  CA        62.8230    0.1060   15.8330 C.3   718  PHE718      0.1639
    158  C         62.5350    1.5500   15.4520 C.2   718  PHE718      0.2290
    159  O         61.4500    1.8700   14.9690 O.2   718  PHE718     -0.2864
    160  CB        64.0390   -0.4730   15.0940 C.3   718  PHE718      0.0560
    161  CG        64.8380   -1.3880   15.9490 C.ar  718  PHE718     -0.0200
    162  CD1       65.4740   -0.8930   17.0870 C.ar  718  PHE718     -0.0042
    163  CD2       64.8890   -2.7480   15.6860 C.ar  718  PHE718     -0.0042
    164  CE1       66.1800   -1.7240   17.9220 C.ar  718  PHE718     -0.0003
    165  CE2       65.5960   -3.5940   16.5310 C.ar  718  PHE718     -0.0003
    166  CZ        66.2520   -3.0760   17.6440 C.ar  718  PHE718     -0.0000
    167  N         61.3300    4.7550   16.2930 N.3   720  TYR720     -0.1227
    168  CA        60.4480    5.4080   17.3010 C.3   720  TYR720      0.1736
    169  C         61.0370    5.0130   18.6230 C.2   720  TYR720      0.2595
    170  O         61.3480    5.8560   19.4630 O.2   720  TYR720     -0.2718
    171  CB        58.9980    4.9160   17.2180 C.3   720  TYR720      0.0548
    172  CG        57.9810    5.9310   17.6830 C.ar  720  TYR720     -0.0200
    173  CD1       57.6290    7.0190   16.8560 C.ar  720  TYR720     -0.0009
    174  CD2       57.3450    5.8090   18.9250 C.ar  720  TYR720     -0.0009
    175  CE1       56.6670    7.9910   17.2550 C.ar  720  TYR720      0.0417
    176  CE2       56.3840    6.7680   19.3440 C.ar  720  TYR720      0.0417
    177  CZ        56.0510    7.8600   18.5010 C.ar  720  TYR720      0.1957
    178  OH        55.1270    8.8140   18.8750 O.3   720  TYR720     -0.2866
    179  N         61.1940    3.6970   18.7420 N.am  721  ALA721     -0.1980
    180  CA        62.0890    3.0230   19.6560 C.3   721  ALA721      0.1597
    181  C         63.3390    3.8020   20.0320 C.2   721  ALA721      0.2287
    182  O         63.5990    4.0210   21.2190 O.2   721  ALA721     -0.2864
    183  CB        62.4910    1.7110   19.0460 C.3   721  ALA721      0.0319
    184  N         62.1580    8.1420   20.4720 N.3   724  LEU724     -0.1231
    185  CA        61.6010    8.3230   21.8430 C.3   724  LEU724      0.1693
    186  C         62.6400    8.3540   22.9740 C.2   724  LEU724      0.2591
    187  O         62.3270    8.8080   24.0990 O.2   724  LEU724     -0.2718
    188  CB        60.5660    7.2430   22.1750 C.3   724  LEU724      0.0284
    189  CG        59.1960    7.3540   21.5030 C.3   724  LEU724      0.0019
    190  CD1       58.0710    7.7270   22.4760 C.3   724  LEU724      0.0001
    191  CD2       59.2240    8.2980   20.3100 C.3   724  LEU724      0.0001
    192  N         63.8520    7.8720   22.6880 N.am  725  ILE725     -0.1980
    193  CA        64.9000    7.8330   23.6840 C.3   725  ILE725      0.1595
    194  C         65.9200    8.9170   23.3700 C.2   725  ILE725      0.2287
    195  O         66.4620    9.5840   24.2690 O.2   725  ILE725     -0.2864
    196  CB        65.5830    6.4680   23.6740 C.3   725  ILE725      0.0276
    197  CG1       64.5120    5.3570   23.6100 C.3   725  ILE725      0.0022
    198  CG2       66.5950    6.3910   24.8380 C.3   725  ILE725      0.0022
    199  CD1       65.0160    3.9670   23.8300 C.3   725  ILE725      0.0001
@<TRIPOS>BOND
     1   143   145   ar
     2   143   141   ar
     3   145   146   ar
     4   140   141    1
     5   140   137    1
     6   136   137    1
     7   141   142   ar
     8   137   138    1
     9   131   130    2
    10   146   147    1
    11   146   144   ar
    12   130   129    1
    13   142   144   ar
    14   117   116    2
    15   138   148   am
    16   138   139    2
    17   128   129    1
    18   129   132    1
    19   159   158    2
    20   160   157    1
    21   160   161    1
    22   148   149    1
    23   158   157    1
    24   116   115    1
    25   163   161   ar
    26   163   165   ar
    27   156   157    1
    28   156   150   am
    29   161   162   ar
    30   113   112   ar
    31   113   111   ar
    32   167   168    1
    33   132   133    1
    34   112   110   ar
    35   155   153    1
    36   165   166   ar
    37   149   150    1
    38   149   152    1
    39   153   152    1
    40   150   151    2
    41   115   114    1
    42   115   118    1
    43   173   175   ar
    44   173   172   ar
    45   162   164   ar
    46   133   134    1
    47   152   154    1
    48   171   168    1
    49   171   172    1
    50   175   177   ar
    51   111   109   ar
    52   168   169    1
    53    94    93    1
    54   166   164   ar
    55   110   108   ar
    56   118   119    1
    57   172   174   ar
    58   135   134    1
    59   177   178    1
    60   177   176   ar
    61    93    91   ar
    62    93    92   ar
    63   109   108   ar
    64    91    89   ar
    65   169   179   am
    66   169   170    2
    67   179   180    1
    68   108   107    1
    69   174   176   ar
    70   119   120   ar
    71   119   121   ar
    72   183   180    1
    73   120   122   ar
    74    92    90   ar
    75    89    88   ar
    76   180   181    1
    77   181   182    2
    78   121   124   ar
    79   121   123   ar
    80   107   104    1
    81   124   126   ar
    82   191   189    1
    83   104   103    1
    84   104   105    1
    85    90    88   ar
    86   184   185    1
    87    88    87    1
    88   122   123   ar
    89   123   125   ar
    90   106   105    2
    91    86    85    2
    92   189   188    1
    93   189   190    1
    94   126   127   ar
    95    87    84    1
    96   185   188    1
    97   185   186    1
    98    84    85    1
    99    84    83    1
   100    72    70    1
   101    85    95   am
   102   125   127   ar
   103   192   186   am
   104   192   193    1
   105   186   187    2
   106   194   193    1
   107   194   195    2
   108   102   100    1
   109   197   196    1
   110   197   199    1
   111    95    96    1
   112    70    71    1
   113    70    67    1
   114    98    97    2
   115   196   193    1
   116   196   198    1
   117    96    97    1
   118    96    99    1
   119    69    68    2
   120    68    67    1
   121    68    73   am
   122    67    66    1
   123    73    74    1
   124   100    99    1
   125    99   101    1
   126    76    75    2
   127    74    75    1
   128    74    77    1
   129    77    78    1
   130    79    78   ar
   131    79    81   ar
   132    51    50    2
   133    49    50    1
   134    49    52    1
   135    49    48    1
   136    78    80   ar
   137    50    53   am
   138    56    55    2
   139    53    54    1
   140    81    82   ar
   141    54    55    1
   142    54    57    1
   143    31    29   ar
   144    31    33   ar
   145    80    82   ar
   146    34    33    1
   147    29    28   ar
   148    55    58   am
   149    33    32   ar
   150    28    27    1
   151    28    30   ar
   152    32    30   ar
   153    27    24    1
   154     9     7   ar
   155     9    10   ar
   156    58    59    1
   157    60    59    1
   158    60    61    2
   159    12    10   ar
   160    12    14   ar
   161     7     6   ar
   162    59    62    1
   163    10     8   ar
   164    24    23    1
   165    24    25    1
   166    14    13   ar
   167    26    25    2
   168    25    35   am
   169     6     8   ar
   170     6     5    1
   171     8    11   ar
   172    62    63    1
   173    35    36    1
   174    40    39    1
   175    13    11   ar
   176    36    39    1
   177    36    37    1
   178    65    63    1
   179     5     2    1
   180    63    64    1
   181     2     1    1
   182     2     3    1
   183     4     3    2
   184    22    20   am
   185    20    21    2
   186    20    19    1
   187    37    38    2
   188    19    16    1
   189    15    16    1
   190    16    17    1
   191    17    18    2
   192    47    45    1
   193    45    46    1
   194    45    42    1
   195    41    42    1
   196    42    43    1
   197    43    44    2
