@<TRIPOS>MOLECULE
tmp/2o01B06.pdb
 97 97 0 0 0
SMALL
GASTEIGER

@<TRIPOS>ATOM
      1  N         53.8550  -28.5640   29.0090 N.3    46  PHE46      -0.1241
      2  CA        54.2910  -28.5200   30.4130 C.3    46  PHE46       0.1605
      3  C         55.7570  -28.1740   30.5250 C.2    46  PHE46       0.2264
      4  O         56.1080  -27.0300   30.8540 O.2    46  PHE46      -0.2867
      5  CB        54.0510  -29.8380   31.1520 C.3    46  PHE46       0.0534
      6  CG        53.5260  -29.6540   32.5510 C.ar   46  PHE46      -0.0203
      7  CD1       52.6960  -30.6190   33.1320 C.ar   46  PHE46      -0.0042
      8  CD2       53.8160  -28.4980   33.2700 C.ar   46  PHE46      -0.0042
      9  CE1       52.1770  -30.4410   34.4090 C.ar   46  PHE46      -0.0003
     10  CE2       53.3030  -28.3060   34.5490 C.ar   46  PHE46      -0.0003
     11  CZ        52.4770  -29.2800   35.1190 C.ar   46  PHE46      -0.0000
     12  N         56.5600  -25.0700   28.8390 N.3    49  HIS49      -0.1226
     13  CA        56.2110  -23.8240   29.5110 C.3    49  HIS49       0.1752
     14  C         56.4620  -23.7780   31.0170 C.2    49  HIS49       0.2596
     15  O         55.9380  -22.9200   31.7090 O.2    49  HIS49      -0.2718
     16  CB        54.8730  -23.1940   29.0220 C.3    49  HIS49       0.0759
     17  CG        53.6840  -23.4840   29.8820 C.ar   49  HIS49       0.0818
     18  ND1       53.6850  -23.2950   31.2440 N.ar   49  HIS49      -0.2268
     19  CD2       52.4350  -23.8840   29.5570 C.ar   49  HIS49       0.1154
     20  CE1       52.5030  -23.6150   31.7300 C.ar   49  HIS49       0.1986
     21  NE2       51.7230  -23.9660   30.7250 N.ar   49  HIS49      -0.2212
     22  N         57.2730  -24.7140   31.5000 N.am   50  PHE50      -0.1976
     23  CA        58.3170  -24.2960   32.4030 C.3    50  PHE50       0.1639
     24  C         59.3460  -23.8130   31.3710 C.2    50  PHE50       0.2290
     25  O         59.1750  -22.7440   30.7450 O.2    50  PHE50      -0.2864
     26  CB        58.9360  -25.4270   33.2260 C.3    50  PHE50       0.0560
     27  CG        57.9590  -26.2580   33.9780 C.ar   50  PHE50      -0.0200
     28  CD1       56.9300  -25.6730   34.7240 C.ar   50  PHE50      -0.0042
     29  CD2       58.0790  -27.6470   33.9760 C.ar   50  PHE50      -0.0042
     30  CE1       56.0010  -26.4840   35.4440 C.ar   50  PHE50      -0.0003
     31  CE2       57.1760  -28.4560   34.6820 C.ar   50  PHE50      -0.0003
     32  CZ        56.1440  -27.8690   35.4230 C.ar   50  PHE50      -0.0000
     33  N         60.3570  -20.2680   31.7180 N.3    53  LEU53      -0.1245
     34  CA        60.3430  -19.8640   33.1120 C.3    53  LEU53       0.1561
     35  C         61.7730  -19.8610   33.5870 C.2    53  LEU53       0.2260
     36  O         62.1320  -19.1000   34.4810 O.2    53  LEU53      -0.2867
     37  CB        59.5390  -20.8330   33.9590 C.3    53  LEU53       0.0270
     38  CG        58.0310  -20.6180   34.0740 C.3    53  LEU53       0.0019
     39  CD1       57.5150  -21.0480   35.4740 C.3    53  LEU53       0.0001
     40  CD2       57.6210  -19.1730   33.7570 C.3    53  LEU53       0.0001
     41  N         43.6750  -34.6720   34.7130 N.3   166  TRP166     -0.1241
     42  CA        44.4310  -33.7130   35.4900 C.3   166  TRP166      0.1605
     43  C         44.5570  -32.3500   34.8650 C.2   166  TRP166      0.2264
     44  O         44.6370  -31.3580   35.6030 O.2   166  TRP166     -0.2867
     45  CB        45.8370  -34.2480   35.6910 C.3   166  TRP166      0.0550
     46  CG        46.5890  -33.4700   36.6490 C.ar  166  TRP166      0.0003
     47  CD1       46.7900  -33.7640   37.9740 C.ar  166  TRP166      0.0946
     48  CD2       47.2500  -32.2360   36.4070 C.ar  166  TRP166      0.0152
     49  NE1       47.5540  -32.7860   38.5730 N.ar  166  TRP166     -0.2442
     50  CE2       47.8440  -31.8310   37.6350 C.ar  166  TRP166      0.0810
     51  CE3       47.4110  -31.4310   35.2730 C.ar  166  TRP166      0.0012
     52  CZ2       48.5830  -30.6620   37.7560 C.ar  166  TRP166      0.0191
     53  CZ3       48.1370  -30.2600   35.3940 C.ar  166  TRP166      0.0001
     54  CH2       48.7230  -29.8880   36.6280 C.ar  166  TRP166      0.0015
     55  N         42.4790  -26.7600   38.8050 N.3   173  ARG173     -0.1245
     56  CA        43.2410  -25.8500   37.9530 C.3   173  ARG173      0.1563
     57  C         42.2850  -24.6850   37.7010 C.2   173  ARG173      0.2260
     58  O         41.5350  -24.7030   36.7210 O.2   173  ARG173     -0.2867
     59  CB        43.6690  -26.5880   36.6610 C.3   173  ARG173      0.0307
     60  CG        43.9410  -25.8000   35.3440 C.3   173  ARG173      0.0489
     61  CD        45.2110  -24.9170   35.2850 C.3   173  ARG173      0.2205
     62  NE        46.5290  -25.5700   35.2150 N.pl3 173  ARG173     -0.0865
     63  CZ        46.9160  -26.7090   35.8110 C.cat 173  ARG173      0.5346
     64  NH1       46.1010  -27.4400   36.5500 N.pl3 173  ARG173      0.1354
     65  NH2       48.1700  -27.1220   35.6800 N.pl3 173  ARG173      0.1354
     66  N         40.7740  -23.6500   43.4540 N.3   176  HIS176     -0.1226
     67  CA        42.0010  -23.8420   44.1570 C.3   176  HIS176      0.1752
     68  C         43.0640  -22.9040   43.5480 C.2   176  HIS176      0.2596
     69  O         43.7940  -22.2300   44.2880 O.2   176  HIS176     -0.2718
     70  CB        42.4720  -25.2820   43.9900 C.3   176  HIS176      0.0759
     71  CG        43.9580  -25.4000   44.0520 C.ar  176  HIS176      0.0818
     72  ND1       44.6230  -25.8500   45.1710 N.ar  176  HIS176     -0.2268
     73  CD2       44.9150  -25.0210   43.1710 C.ar  176  HIS176      0.1154
     74  CE1       45.9220  -25.7650   44.9670 C.ar  176  HIS176      0.1986
     75  NE2       46.1280  -25.2610   43.7630 N.ar  176  HIS176     -0.2212
     76  N         43.1540  -22.8720   42.2040 N.am  177  HIS177     -0.1975
     77  CA        44.2630  -22.1640   41.5310 C.3   177  HIS177      0.1656
     78  C         44.1350  -20.6570   41.2780 C.2   177  HIS177      0.2291
     79  O         44.8900  -20.1000   40.4710 O.2   177  HIS177     -0.2864
     80  CB        44.8690  -22.8810   40.3030 C.3   177  HIS177      0.0771
     81  CG        46.2870  -22.4520   40.0300 C.ar  177  HIS177      0.0820
     82  ND1       46.8140  -22.3240   38.7630 N.ar  177  HIS177     -0.2267
     83  CD2       47.2720  -22.0670   40.8800 C.ar  177  HIS177      0.1154
     84  CE1       48.0670  -21.9130   38.8450 C.ar  177  HIS177      0.1986
     85  NE2       48.3670  -21.7470   40.1190 N.ar  177  HIS177     -0.2212
     86  N         46.0440  -20.0600   45.5530 N.3   180  GLY180     -0.1210
     87  CA        47.5100  -20.1320   45.5460 C.3   180  GLY180      0.1956
     88  C         48.1120  -19.0930   44.6110 C.2   180  GLY180      0.2611
     89  O         48.7520  -18.1290   45.0580 O.2   180  GLY180     -0.2717
     90  N         47.8670  -19.2800   43.3130 N.am  181  LEU181     -0.1979
     91  CA        48.5670  -18.5500   42.2610 C.3   181  LEU181      0.1596
     92  C         48.8890  -17.1180   42.6390 C.2   181  LEU181      0.2287
     93  O         50.0700  -16.7580   42.6880 O.2   181  LEU181     -0.2864
     94  CB        47.8060  -18.5880   40.9350 C.3   181  LEU181      0.0297
     95  CG        48.6250  -18.2860   39.6560 C.3   181  LEU181      0.0022
     96  CD1       48.4300  -16.8760   39.1290 C.3   181  LEU181      0.0001
     97  CD2       50.1140  -18.5910   39.8390 C.3   181  LEU181      0.0001
@<TRIPOS>BOND
     1    12    13    1
     2     1     2    1
     3    16    13    1
     4    16    17    1
     5    13    14    1
     6    19    17   ar
     7    19    21   ar
     8    17    18   ar
     9     2     3    1
    10     2     5    1
    11     3     4    2
    12    21    20   ar
    13    25    24    2
    14    14    22   am
    15    14    15    2
    16     5     6    1
    17    18    20   ar
    18    24    23    1
    19    22    23    1
    20    33    34    1
    21    23    26    1
    22     6     7   ar
    23     6     8   ar
    24    34    35    1
    25    34    37    1
    26     7     9   ar
    27    26    27    1
    28     8    10   ar
    29    35    36    2
    30    40    38    1
    31    37    38    1
    32    29    27   ar
    33    29    31   ar
    34    27    28   ar
    35    38    39    1
    36     9    11   ar
    37    10    11   ar
    38    31    32   ar
    39    41    42    1
    40    28    30   ar
    41    43    42    1
    42    43    44    2
    43    62    61    1
    44    62    63    2
    45    51    53   ar
    46    51    48   ar
    47    61    60    1
    48    60    59    1
    49    53    54   ar
    50    32    30   ar
    51    42    45    1
    52    65    63    1
    53    45    46    1
    54    63    64    1
    55    48    46   ar
    56    48    50   ar
    57    54    52   ar
    58    46    47   ar
    59    59    56    1
    60    58    57    2
    61    50    52   ar
    62    50    49   ar
    63    57    56    1
    64    56    55    1
    65    47    49   ar
    66    82    84   ar
    67    82    81   ar
    68    84    85   ar
    69    96    95    1
    70    95    97    1
    71    95    94    1
    72    81    80    1
    73    81    83   ar
    74    85    83   ar
    75    80    77    1
    76    79    78    2
    77    94    91    1
    78    78    77    1
    79    77    76    1
    80    76    68   am
    81    91    92    1
    82    91    90    1
    83    92    93    2
    84    73    75   ar
    85    73    71   ar
    86    90    88   am
    87    66    67    1
    88    68    67    1
    89    68    69    2
    90    75    74   ar
    91    70    71    1
    92    70    67    1
    93    71    72   ar
    94    88    89    2
    95    88    87    1
    96    74    72   ar
    97    87    86    1
