@<TRIPOS>MOLECULE
tmp/2o01B00.pdb
 123 117 0 0 0
SMALL
GASTEIGER

@<TRIPOS>ATOM
      1  N         56.9340  -24.8570   16.6000 N.3    28  HIS28      -0.1241
      2  CA        56.0660  -25.1210   17.7410 C.3    28  HIS28       0.1621
      3  C         54.6340  -25.3070   17.1990 C.2    28  HIS28       0.2264
      4  O         53.6700  -24.7320   17.7430 O.2    28  HIS28      -0.2867
      5  CB        56.0890  -23.9940   18.8000 C.3    28  HIS28       0.0745
      6  CG        57.4480  -23.6500   19.3460 C.ar   28  HIS28       0.0817
      7  ND1       57.6620  -22.5410   20.1410 N.ar   28  HIS28      -0.2268
      8  CD2       58.6530  -24.2590   19.2280 C.ar   28  HIS28       0.1154
      9  CE1       58.9340  -22.4790   20.4860 C.ar   28  HIS28       0.1986
     10  NE2       59.5570  -23.5130   19.9500 N.ar   28  HIS28      -0.2212
     11  N         60.9900  -22.0300   29.6350 N.3    52  GLN52      -0.1245
     12  CA        61.3950  -20.6250   29.5210 C.3    52  GLN52       0.1566
     13  C         61.3650  -19.9280   30.8980 C.2    52  GLN52       0.2260
     14  O         62.2780  -19.1330   31.2170 O.2    52  GLN52      -0.2867
     15  CB        60.6850  -19.8660   28.3620 C.3    52  GLN52       0.0367
     16  CG        59.6130  -18.8260   28.7160 C.3    52  GLN52       0.0905
     17  CD        58.2260  -19.4280   28.8390 C.2    52  GLN52       0.2608
     18  OE1       57.8450  -20.3380   28.0960 O.2    52  GLN52      -0.2717
     19  NE2       57.4590  -18.9190   29.7890 N.am   52  GLN52      -0.0878
     20  N         64.6140  -19.1710   31.6960 N.3    55  ILE55      -0.1231
     21  CA        65.4300  -18.0750   31.1890 C.3    55  ILE55       0.1692
     22  C         64.8550  -16.7900   31.7090 C.2    55  ILE55       0.2591
     23  O         65.6070  -15.9080   32.0980 O.2    55  ILE55      -0.2718
     24  CB        65.5530  -18.0140   29.6250 C.3    55  ILE55       0.0266
     25  CG1       65.2400  -19.3840   28.9690 C.3    55  ILE55       0.0019
     26  CG2       66.9530  -17.5330   29.2470 C.3    55  ILE55       0.0020
     27  CD1       64.4060  -19.3930   27.6250 C.3    55  ILE55       0.0001
     28  N         63.5280  -16.6800   31.7530 N.am   56  ILE56      -0.1980
     29  CA        62.9390  -15.4780   32.3520 C.3    56  ILE56       0.1595
     30  C         63.6670  -15.2710   33.6680 C.2    56  ILE56       0.2287
     31  O         64.0860  -14.1690   33.9940 O.2    56  ILE56      -0.2864
     32  CB        61.4180  -15.5720   32.5710 C.3    56  ILE56       0.0276
     33  CG1       60.7490  -16.2700   31.3780 C.3    56  ILE56       0.0022
     34  CG2       60.8480  -14.1860   32.7810 C.3    56  ILE56       0.0022
     35  CD1       59.3490  -16.7770   31.6430 C.3    56  ILE56       0.0001
     36  N         66.8350  -14.3590   33.1500 N.3    59  TRP59      -0.1241
     37  CA        66.6490  -13.0930   32.4400 C.3    59  TRP59       0.1605
     38  C         67.2180  -11.9580   33.2650 C.2    59  TRP59       0.2264
     39  O         67.3920  -10.8530   32.7750 O.2    59  TRP59      -0.2867
     40  CB        65.1520  -12.8440   32.2830 C.3    59  TRP59       0.0550
     41  CG        64.7000  -11.8020   31.3150 C.ar   59  TRP59       0.0003
     42  CD1       65.3170  -11.4190   30.1580 C.ar   59  TRP59       0.0946
     43  CD2       63.4730  -11.0490   31.3890 C.ar   59  TRP59       0.0152
     44  NE1       64.5620  -10.4510   29.5200 N.ar   59  TRP59      -0.2442
     45  CE2       63.4220  -10.2160   30.2490 C.ar   59  TRP59       0.0810
     46  CE3       62.4100  -11.0020   32.3050 C.ar   59  TRP59       0.0012
     47  CZ2       62.3440   -9.3440   30.0030 C.ar   59  TRP59       0.0191
     48  CZ3       61.3400  -10.1300   32.0550 C.ar   59  TRP59       0.0001
     49  CH2       61.3200   -9.3210   30.9200 C.ar   59  TRP59       0.0015
     50  N         44.6770  -19.6760   25.4770 N.3   333  LEU333     -0.1245
     51  CA        45.4810  -19.0700   24.4420 C.3   333  LEU333      0.1561
     52  C         44.4160  -18.6090   23.4720 C.2   333  LEU333      0.2260
     53  O         44.6930  -18.1980   22.3780 O.2   333  LEU333     -0.2867
     54  CB        46.4780  -20.0570   23.8110 C.3   333  LEU333      0.0270
     55  CG        47.8660  -19.5770   23.3220 C.3   333  LEU333      0.0019
     56  CD1       47.8190  -18.2370   22.5760 C.3   333  LEU333      0.0001
     57  CD2       48.8870  -19.4560   24.4230 C.3   333  LEU333      0.0001
     58  N         44.0810  -16.3120   27.4240 N.3   336  ALA336     -0.1231
     59  CA        45.3130  -16.0300   28.1800 C.3   336  ALA336      0.1694
     60  C         46.4670  -15.5620   27.2470 C.2   336  ALA336      0.2591
     61  O         47.6590  -15.8850   27.4080 O.2   336  ALA336     -0.2718
     62  CB        45.6970  -17.2100   29.0540 C.3   336  ALA336      0.0304
     63  N         46.0260  -14.8560   26.2140 N.am  337  LEU337     -0.1980
     64  CA        46.5600  -13.5290   25.9470 C.3   337  LEU337      0.1596
     65  C         45.3640  -12.5770   25.9160 C.2   337  LEU337      0.2287
     66  O         45.4570  -11.4400   26.3690 O.2   337  LEU337     -0.2864
     67  CB        47.3740  -13.4580   24.6610 C.3   337  LEU337      0.0297
     68  CG        47.1260  -14.4270   23.5090 C.3   337  LEU337      0.0022
     69  CD1       45.6540  -14.8640   23.3170 C.3   337  LEU337      0.0001
     70  CD2       47.6710  -13.7910   22.2570 C.3   337  LEU337      0.0001
     71  N         44.8110  -11.0680   29.5280 N.3   340  LEU340     -0.1245
     72  CA        46.1200  -10.5080   29.7970 C.3   340  LEU340      0.1561
     73  C         46.3630   -9.6900   28.5390 C.2   340  LEU340      0.2260
     74  O         47.4540   -9.1540   28.3440 O.2   340  LEU340     -0.2867
     75  CB        47.1880  -11.5940   30.0580 C.3   340  LEU340      0.0270
     76  CG        48.6910  -11.5580   29.6400 C.3   340  LEU340      0.0019
     77  CD1       49.3070  -10.1850   29.6170 C.3   340  LEU340      0.0001
     78  CD2       49.5520  -12.4760   30.5280 C.3   340  LEU340      0.0001
     79  N         52.7040   -4.7540   23.6350 N.3   377  ILE377     -0.1245
     80  CA        52.3080   -6.1050   23.8860 C.3   377  ILE377      0.1561
     81  C         50.8030   -6.0990   24.0700 C.2   377  ILE377      0.2260
     82  O         50.1180   -7.0430   23.6730 O.2   377  ILE377     -0.2867
     83  CB        53.0820   -6.6520   25.0660 C.3   377  ILE377      0.0252
     84  CG1       54.5460   -6.2300   24.9360 C.3   377  ILE377      0.0019
     85  CG2       52.9870   -8.1500   25.1210 C.3   377  ILE377      0.0019
     86  CD1       55.1540   -6.5440   23.5730 C.3   377  ILE377      0.0001
     87  N         50.9560   -6.7660   20.5750 N.3   380  PHE380     -0.1227
     88  CA        51.4040   -8.1600   20.3250 C.3   380  PHE380      0.1736
     89  C         50.9840   -9.3010   21.3400 C.2   380  PHE380      0.2595
     90  O         51.4890  -10.4680   21.3010 O.2   380  PHE380     -0.2718
     91  CB        52.9090   -8.1380   20.1020 C.3   380  PHE380      0.0547
     92  CG        53.2980   -7.6790   18.7430 C.ar  380  PHE380     -0.0202
     93  CD1       53.7710   -6.3860   18.5440 C.ar  380  PHE380     -0.0042
     94  CD2       53.2020   -8.5530   17.6450 C.ar  380  PHE380     -0.0042
     95  CE1       54.1470   -5.9580   17.2600 C.ar  380  PHE380     -0.0003
     96  CE2       53.5750   -8.1580   16.3600 C.ar  380  PHE380     -0.0003
     97  CZ        54.0470   -6.8520   16.1610 C.ar  380  PHE380     -0.0000
     98  N         50.0700   -8.9360   22.2460 N.am  381  ILE381     -0.1980
     99  CA        49.2960   -9.8890   23.0050 C.3   381  ILE381      0.1595
    100  C         47.8640   -9.5970   22.6350 C.2   381  ILE381      0.2287
    101  O         47.2250  -10.4360   22.0130 O.2   381  ILE381     -0.2864
    102  CB        49.5930   -9.8150   24.5040 C.3   381  ILE381      0.0276
    103  CG1       51.0650  -10.1790   24.7260 C.3   381  ILE381      0.0022
    104  CG2       48.7060  -10.7780   25.2820 C.3   381  ILE381      0.0022
    105  CD1       51.5330  -10.1410   26.1570 C.3   381  ILE381      0.0001
    106  N         44.2520  -17.2650   17.7770 N.3   388  HIS388     -0.1241
    107  CA        43.7440  -18.4020   18.5000 C.3   388  HIS388      0.1621
    108  C         42.3100  -18.1290   18.8850 C.2   388  HIS388      0.2264
    109  O         41.9700  -18.1890   20.0680 O.2   388  HIS388     -0.2867
    110  CB        44.5220  -18.6590   19.7430 C.3   388  HIS388      0.0745
    111  CG        45.9570  -18.9570   19.5040 C.ar  388  HIS388      0.0817
    112  ND1       46.4730  -19.1770   18.2470 N.ar  388  HIS388     -0.2268
    113  CD2       46.9860  -19.1060   20.3720 C.ar  388  HIS388      0.1154
    114  CE1       47.7670  -19.4250   18.3540 C.ar  388  HIS388      0.1986
    115  NE2       48.1040  -19.3890   19.6330 N.ar  388  HIS388     -0.2212
    116  N         55.2670  -13.1200    5.7130 N.3   706  LEU706     -0.1245
    117  CA        55.8660  -13.2130    7.0730 C.3   706  LEU706      0.1561
    118  C         57.1250  -12.3150    7.1910 C.2   706  LEU706      0.2260
    119  O         57.0140  -11.2120    7.7190 O.2   706  LEU706     -0.2867
    120  CB        56.1580  -14.6800    7.4900 C.3   706  LEU706      0.0270
    121  CG        56.2010  -15.3490    8.9130 C.3   706  LEU706      0.0019
    122  CD1       57.4780  -15.0430    9.7090 C.3   706  LEU706      0.0001
    123  CD2       54.9470  -15.1320    9.7850 C.3   706  LEU706      0.0001
@<TRIPOS>BOND
     1   116   117    1
     2   117   118    1
     3   117   120    1
     4   118   119    2
     5   120   121    1
     6   121   122    1
     7   121   123    1
     8    97    96   ar
     9    97    95   ar
    10    96    94   ar
    11     1     2    1
    12     3     2    1
    13     3     4    2
    14    95    93   ar
    15    94    92   ar
    16     2     5    1
    17   106   107    1
    18   112   114   ar
    19   112   111   ar
    20   114   115   ar
    21   107   108    1
    22   107   110    1
    23    93    92   ar
    24    92    91    1
    25     5     6    1
    26   108   109    2
    27     8     6   ar
    28     8    10   ar
    29     6     7   ar
    30   111   110    1
    31   111   113   ar
    32   115   113   ar
    33    10     9   ar
    34    91    88    1
    35     7     9   ar
    36    88    87    1
    37    88    89    1
    38    90    89    2
    39    89    98   am
    40   101   100    2
    41    98    99    1
    42    70    68    1
    43    53    52    2
    44    56    55    1
    45   100    99    1
    46    99   102    1
    47    69    68    1
    48    55    54    1
    49    55    57    1
    50    52    51    1
    51    68    67    1
    52    86    84    1
    53    79    80    1
    54    82    81    2
    55    54    51    1
    56    80    81    1
    57    80    83    1
    58    51    50    1
    59   102   103    1
    60   102   104    1
    61    67    64    1
    62   103   105    1
    63    84    83    1
    64    83    85    1
    65    65    64    1
    66    65    66    2
    67    64    63    1
    68    63    60   am
    69    60    61    2
    70    60    59    1
    71    58    59    1
    72    27    25    1
    73    18    17    2
    74    59    62    1
    75    74    73    2
    76    15    16    1
    77    15    12    1
    78    73    72    1
    79    16    17    1
    80    17    19   am
    81    25    24    1
    82    26    24    1
    83    44    42   ar
    84    44    45   ar
    85    12    11    1
    86    12    13    1
    87    71    72    1
    88    77    76    1
    89    24    21    1
    90    76    75    1
    91    76    78    1
    92    72    75    1
    93    47    45   ar
    94    47    49   ar
    95    42    41   ar
    96    45    43   ar
    97    13    14    2
    98    49    48   ar
    99    21    20    1
   100    21    22    1
   101    41    43   ar
   102    41    40    1
   103    33    35    1
   104    33    32    1
   105    43    46   ar
   106    22    28   am
   107    22    23    2
   108    28    29    1
   109    48    46   ar
   110    40    37    1
   111    29    32    1
   112    29    30    1
   113    37    36    1
   114    37    38    1
   115    32    34    1
   116    39    38    2
   117    30    31    2
