@<TRIPOS>MOLECULE
tmp/2o01A27.pdb
 87 87 0 0 0
SMALL
GASTEIGER

@<TRIPOS>ATOM
      1  N         50.4350   22.0690    1.3420 N.3   647  LEU647     -0.1231
      2  CA        49.1410   21.3930    1.1210 C.3   647  LEU647      0.1693
      3  C         49.0890   20.1500    0.1820 C.2   647  LEU647      0.2592
      4  O         48.1480   19.3650    0.2540 O.2   647  LEU647     -0.2718
      5  CB        48.0430   22.4020    0.7890 C.3   647  LEU647      0.0284
      6  CG        47.3620   23.0540    2.0040 C.3   647  LEU647      0.0019
      7  CD1       45.9320   23.5750    1.6810 C.3   647  LEU647      0.0001
      8  CD2       47.3140   22.1080    3.2140 C.3   647  LEU647      0.0001
      9  N         50.1030   19.9560   -0.6610 N.am  648  PHE648     -0.1976
     10  CA        50.1800   18.7540   -1.5200 C.3   648  PHE648      0.1639
     11  C         50.6890   17.4510   -0.8850 C.2   648  PHE648      0.2290
     12  O         49.8780   16.5560   -0.5870 O.2   648  PHE648     -0.2864
     13  CB        50.9580   19.0490   -2.7950 C.3   648  PHE648      0.0560
     14  CG        50.1070   19.0820   -4.0070 C.ar  648  PHE648     -0.0200
     15  CD1       50.6460   18.7800   -5.2360 C.ar  648  PHE648     -0.0042
     16  CD2       48.7570   19.4000   -3.9110 C.ar  648  PHE648     -0.0042
     17  CE1       49.8590   18.8060   -6.3650 C.ar  648  PHE648     -0.0003
     18  CE2       47.9500   19.4230   -5.0300 C.ar  648  PHE648     -0.0003
     19  CZ        48.4950   19.1240   -6.2680 C.ar  648  PHE648     -0.0000
     20  N         51.1250   16.4730    1.7520 N.3   650  LEU650     -0.1231
     21  CA        50.2340   15.9870    2.7750 C.3   650  LEU650      0.1693
     22  C         49.4140   14.8710    2.1340 C.2   650  LEU650      0.2592
     23  O         49.8220   13.7100    2.1480 O.2   650  LEU650     -0.2718
     24  CB        49.3760   17.1300    3.2870 C.3   650  LEU650      0.0284
     25  CG        49.7000   17.7120    4.6510 C.3   650  LEU650      0.0019
     26  CD1       51.1910   17.6880    4.9980 C.3   650  LEU650      0.0001
     27  CD2       49.1420   19.1020    4.6720 C.3   650  LEU650      0.0001
     28  N         48.2940   15.2440    1.5360 N.am  651  GLY651     -0.1957
     29  CA        47.5580   14.3560    0.6860 C.3   651  GLY651      0.1869
     30  C         48.3790   13.9210   -0.5150 C.2   651  GLY651      0.2309
     31  O         47.8220   13.4580   -1.5010 O.2   651  GLY651     -0.2863
     32  N         51.4810   12.2580    0.7670 N.3   653  HIS653     -0.1226
     33  CA        52.0280   11.2020    1.6340 C.3   653  HIS653      0.1752
     34  C         50.9650   10.1340    1.8300 C.2   653  HIS653      0.2596
     35  O         51.2000    8.9600    1.5420 O.2   653  HIS653     -0.2718
     36  CB        52.5210   11.7510    2.9790 C.3   653  HIS653      0.0759
     37  CG        53.9570   12.2190    2.9790 C.ar  653  HIS653      0.0818
     38  ND1       54.3570   13.3980    2.3910 N.ar  653  HIS653     -0.2268
     39  CD2       55.0660   11.6940    3.5530 C.ar  653  HIS653      0.1154
     40  CE1       55.6520   13.5640    2.5800 C.ar  653  HIS653      0.1986
     41  NE2       56.1060   12.5460    3.2870 N.ar  653  HIS653     -0.2212
     42  N         49.7960   10.5270    2.3160 N.am  654  PHE654     -0.1976
     43  CA        48.6140    9.7240    2.0590 C.3   654  PHE654      0.1639
     44  C         48.3790    9.8540    0.5430 C.2   654  PHE654      0.2290
     45  O         48.2720   10.9770    0.0410 O.2   654  PHE654     -0.2864
     46  CB        47.4460   10.2760    2.8630 C.3   654  PHE654      0.0560
     47  CG        46.0740    9.8290    2.3810 C.ar  654  PHE654     -0.0200
     48  CD1       45.0470    9.6130    3.2970 C.ar  654  PHE654     -0.0042
     49  CD2       45.7910    9.6700    1.0380 C.ar  654  PHE654     -0.0042
     50  CE1       43.8060    9.2440    2.8980 C.ar  654  PHE654     -0.0003
     51  CE2       44.5530    9.2940    0.6390 C.ar  654  PHE654     -0.0003
     52  CZ        43.5550    9.0790    1.5720 C.ar  654  PHE654     -0.0000
     53  N         50.7160    8.3460   -1.1010 N.3   656  TRP656     -0.1227
     54  CA        51.8400    7.4330   -1.3320 C.3   656  TRP656      0.1737
     55  C         51.3870    6.2390   -0.5420 C.2   656  TRP656      0.2595
     56  O         51.7340    5.0890   -0.8470 O.2   656  TRP656     -0.2718
     57  CB        53.1520    7.9000   -0.7210 C.3   656  TRP656      0.0564
     58  CG        54.1870    6.8340   -0.8180 C.ar  656  TRP656      0.0003
     59  CD1       54.8090    6.4150   -1.9410 C.ar  656  TRP656      0.0946
     60  CD2       54.6900    6.0210    0.2410 C.ar  656  TRP656      0.0152
     61  NE1       55.6870    5.4040   -1.6580 N.ar  656  TRP656     -0.2442
     62  CE2       55.6350    5.1390   -0.3220 C.ar  656  TRP656      0.0810
     63  CE3       54.4370    5.9480    1.6220 C.ar  656  TRP656      0.0012
     64  CZ2       56.3450    4.2050    0.4410 C.ar  656  TRP656      0.0191
     65  CZ3       55.1530    5.0040    2.3920 C.ar  656  TRP656      0.0001
     66  CH2       56.0980    4.1570    1.7920 C.ar  656  TRP656      0.0015
     67  N         50.5690    6.5580    0.4640 N.am  657  ALA657     -0.1980
     68  CA        50.1900    5.6610    1.5420 C.3   657  ALA657      0.1597
     69  C         49.0850    4.6680    1.1200 C.2   657  ALA657      0.2287
     70  O         49.3550    3.4930    0.8530 O.2   657  ALA657     -0.2864
     71  CB        49.7810    6.4970    2.7670 C.3   657  ALA657      0.0319
     72  N         49.6570    0.8340   -0.4640 N.3   660  LEU660     -0.1231
     73  CA        49.9640   -0.4080    0.2280 C.3   660  LEU660      0.1693
     74  C         48.7280   -1.1220    0.6950 C.2   660  LEU660      0.2591
     75  O         48.7470   -2.3360    0.8500 O.2   660  LEU660     -0.2718
     76  CB        50.8750   -0.0890    1.4240 C.3   660  LEU660      0.0284
     77  CG        52.2360    0.5480    1.0650 C.3   660  LEU660      0.0019
     78  CD1       52.3380    0.8840   -0.4290 C.3   660  LEU660      0.0001
     79  CD2       52.6440    1.7620    1.9410 C.3   660  LEU660      0.0001
     80  N         47.6480   -0.3720    0.9120 N.am  661  MET661     -0.1979
     81  CA        46.4020   -0.9600    1.3920 C.3   661  MET661      0.1605
     82  C         45.7900   -1.8930    0.3350 C.2   661  MET661      0.2287
     83  O         45.1460   -2.9060    0.6580 O.2   661  MET661     -0.2864
     84  CB        45.4390    0.1310    1.7470 C.3   661  MET661      0.0413
     85  CG        44.2770   -0.3780    2.4810 C.3   661  MET661      0.0598
     86  SD        42.9200   -0.6220    1.3570 S.3   661  MET661     -0.1393
     87  CE        42.6730    1.0060    0.6440 C.3   661  MET661      0.0692
@<TRIPOS>BOND
     1    17    19   ar
     2    17    15   ar
     3    19    18   ar
     4    15    14   ar
     5    18    16   ar
     6    14    16   ar
     7    14    13    1
     8    13    10    1
     9    59    61   ar
    10    59    58   ar
    11    61    62   ar
    12    10    11    1
    13    10     9    1
    14    31    30    2
    15    54    53    1
    16    54    57    1
    17    54    55    1
    18    11    12    2
    19    56    55    2
    20    58    57    1
    21    58    60   ar
    22     9     3   am
    23    55    67   am
    24    30    29    1
    25    72    73    1
    26    78    77    1
    27    62    60   ar
    28    62    64   ar
    29    45    44    2
    30     3     4    2
    31     3     2    1
    32    73    74    1
    33    73    76    1
    34    60    63   ar
    35    82    83    2
    36    82    81    1
    37    64    66   ar
    38    67    68    1
    39    44    43    1
    40    51    49   ar
    41    51    52   ar
    42    87    86    1
    43    29    28    1
    44    74    75    2
    45    74    80   am
    46    32    33    1
    47     5     2    1
    48     5     6    1
    49    70    69    2
    50    80    81    1
    51    49    47   ar
    52    77    76    1
    53    77    79    1
    54    69    68    1
    55     2     1    1
    56    86    85    1
    57    81    84    1
    58    28    22   am
    59    35    34    2
    60    68    71    1
    61    52    50   ar
    62    63    65   ar
    63    33    34    1
    64    33    36    1
    65     7     6    1
    66    84    85    1
    67    20    21    1
    68    66    65   ar
    69    34    42   am
    70     6     8    1
    71    43    42    1
    72    43    46    1
    73    22    23    2
    74    22    21    1
    75    47    46    1
    76    47    48   ar
    77    38    40   ar
    78    38    37   ar
    79    40    41   ar
    80    21    24    1
    81    50    48   ar
    82    37    36    1
    83    37    39   ar
    84    24    25    1
    85    41    39   ar
    86    25    27    1
    87    25    26    1
