@<TRIPOS>MOLECULE
tmp/2o01B18.pdb
 165 150 0 0 0
SMALL
GASTEIGER

@<TRIPOS>ATOM
      1  N         43.8290   -6.7490   27.6670 N.3   342  VAL342     -0.1245
      2  CA        43.5380   -5.5900   28.5190 C.3   342  VAL342      0.1561
      3  C         44.6180   -5.2270   29.5640 C.2   342  VAL342      0.2260
      4  O         45.1920   -4.1430   29.4800 O.2   342  VAL342     -0.2867
      5  CB        42.1080   -5.6670   29.1380 C.3   342  VAL342      0.0252
      6  CG1       41.5810   -4.2620   29.5660 C.3   342  VAL342      0.0019
      7  CG2       41.1620   -6.3070   28.1130 C.3   342  VAL342      0.0019
      8  N         47.1620   -2.7220   29.0350 N.3   345  SER345     -0.1202
      9  CA        46.7940   -1.3700   28.6460 C.3   345  SER345      0.2020
     10  C         46.3210   -0.5880   29.8810 C.2   345  SER345      0.2618
     11  O         46.5830    0.6110   30.0310 O.2   345  SER345     -0.2717
     12  CB        45.7280   -1.4510   27.5630 C.3   345  SER345      0.2103
     13  OG        46.0160   -0.5600   26.4930 O.3   345  SER345     -0.2182
     14  N         45.6400   -1.3120   30.7700 N.am  346  LEU346     -0.1979
     15  CA        45.3080   -0.8610   32.1400 C.3   346  LEU346      0.1596
     16  C         46.5180   -1.0450   33.0770 C.2   346  LEU346      0.2287
     17  O         46.4220   -0.8030   34.2840 O.2   346  LEU346     -0.2864
     18  CB        44.0710   -1.6000   32.6950 C.3   346  LEU346      0.0297
     19  CG        42.6720   -1.1380   32.2820 C.3   346  LEU346      0.0022
     20  CD1       42.3680   -1.2660   30.7680 C.3   346  LEU346      0.0001
     21  CD2       41.6610   -1.8930   33.1050 C.3   346  LEU346      0.0001
     22  N         48.9090    2.7580   32.0280 N.3   349  GLN349     -0.1245
     23  CA        48.8140    4.0800   32.6420 C.3   349  GLN349      0.1566
     24  C         48.8720    4.0420   34.1690 C.2   349  GLN349      0.2260
     25  O         49.6930    4.7390   34.7740 O.2   349  GLN349     -0.2867
     26  CB        47.6520    4.9500   32.0990 C.3   349  GLN349      0.0367
     27  CG        46.3750    4.2590   31.6950 C.3   349  GLN349      0.0905
     28  CD        46.4160    3.7880   30.2780 C.2   349  GLN349      0.2608
     29  OE1       46.9290    2.7110   29.9990 O.2   349  GLN349     -0.2717
     30  NE2       45.8660    4.5800   29.3700 N.am  349  GLN349     -0.0878
     31  N         53.0280   -1.1020   26.0800 N.3   375  GLN375     -0.1245
     32  CA        51.8810   -0.9130   25.2220 C.3   375  GLN375      0.1566
     33  C         51.9330   -1.9330   24.0540 C.2   375  GLN375      0.2260
     34  O         50.9380   -2.6210   23.7770 O.2   375  GLN375     -0.2867
     35  CB        51.7590    0.5470   24.7590 C.3   375  GLN375      0.0367
     36  CG        50.3890    1.1780   25.0160 C.3   375  GLN375      0.0905
     37  CD        49.2360    0.5240   24.2370 C.2   375  GLN375      0.2608
     38  OE1       48.0600    0.6850   24.5840 O.2   375  GLN375     -0.2717
     39  NE2       49.5660   -0.2180   23.1930 N.am  375  GLN375     -0.0878
     40  N         50.2900   -4.9990   24.6310 N.3   378  ALA378     -0.1231
     41  CA        48.8610   -4.7260   24.5590 C.3   378  ALA378      0.1694
     42  C         48.5000   -4.6550   23.0630 C.2   378  ALA378      0.2592
     43  O         47.3220   -4.7190   22.6690 O.2   378  ALA378     -0.2718
     44  CB        48.5160   -3.4540   25.3180 C.3   378  ALA378      0.0304
     45  N         49.5470   -4.5380   22.2500 N.am  379  GLY379     -0.1957
     46  CA        49.4670   -4.8800   20.8560 C.3   379  GLY379      0.1869
     47  C         49.6870   -6.3820   20.7510 C.2   379  GLY379      0.2309
     48  O         48.7350   -7.1680   20.8790 O.2   379  GLY379     -0.2863
     49  N         47.3700   -8.4000   22.9320 N.3   382  MET382     -0.1230
     50  CA        45.9960   -8.0640   22.4740 C.3   382  MET382      0.1702
     51  C         45.7260   -8.5200   21.0000 C.2   382  MET382      0.2593
     52  O         44.7970   -9.2840   20.7510 O.2   382  MET382     -0.2718
     53  CB        45.5540   -6.5850   22.7880 C.3   382  MET382      0.0401
     54  CG        44.6520   -6.4130   24.1030 C.3   382  MET382      0.0596
     55  SD        44.5340   -4.7990   25.0020 S.3   382  MET382     -0.1393
     56  CE        42.7710   -4.7120   25.3860 C.3   382  MET382      0.0692
     57  N         46.5440   -8.1080   20.0370 N.am  383  THR383     -0.1953
     58  CA        46.4090   -8.7170   18.7130 C.3   383  THR383      0.1897
     59  C         46.7830  -10.1900   18.8590 C.2   383  THR383      0.2313
     60  O         46.9950  -10.6600   20.0030 O.2   383  THR383     -0.2863
     61  CB        47.2770   -8.0700   17.6070 C.3   383  THR383      0.1794
     62  OG1       46.8740   -8.6070   16.3390 O.3   383  THR383     -0.2208
     63  CG2       48.7760   -8.3450   17.8390 C.3   383  THR383      0.0378
     64  N         42.9360  -12.9850   18.9100 N.3   386  PHE386     -0.1241
     65  CA        41.7840  -13.5220   18.3230 C.3   386  PHE386      0.1605
     66  C         42.2460  -14.6200   17.3560 C.2   386  PHE386      0.2264
     67  O         41.4370  -15.4900   16.9840 O.2   386  PHE386     -0.2867
     68  CB        41.0410  -12.4700   17.5520 C.3   386  PHE386      0.0534
     69  CG        40.4960  -11.3560   18.3600 C.ar  386  PHE386     -0.0203
     70  CD1       41.3280  -10.3860   18.8820 C.ar  386  PHE386     -0.0042
     71  CD2       39.0990  -11.2040   18.4780 C.ar  386  PHE386     -0.0042
     72  CE1       40.7970   -9.3110   19.5590 C.ar  386  PHE386     -0.0003
     73  CE2       38.5380  -10.1320   19.1650 C.ar  386  PHE386     -0.0003
     74  CZ        39.3980   -9.1860   19.7170 C.ar  386  PHE386     -0.0000
     75  N         28.1830   -8.5790   13.1300 N.3   417  ILE417     -0.1245
     76  CA        29.2610   -8.0790   13.9640 C.3   417  ILE417      0.1561
     77  C         30.2580   -7.4510   13.0250 C.2   417  ILE417      0.2260
     78  O         30.7870   -6.3890   13.2950 O.2   417  ILE417     -0.2867
     79  CB        29.9050   -9.2370   14.7650 C.3   417  ILE417      0.0252
     80  CG1       31.4320   -9.1110   14.8520 C.3   417  ILE417      0.0019
     81  CG2       29.5750  -10.5620   14.1430 C.3   417  ILE417      0.0019
     82  CD1       31.9200   -8.4800   16.1570 C.3   417  ILE417      0.0001
     83  N         30.8080   -3.0640   12.6790 N.3   421  LEU421     -0.1245
     84  CA        32.1900   -2.9530   13.0780 C.3   421  LEU421      0.1561
     85  C         32.8050   -2.8030   11.7020 C.2   421  LEU421      0.2260
     86  O         33.3380   -3.7580   11.1420 O.2   421  LEU421     -0.2867
     87  CB        32.6280   -4.2680   13.7090 C.3   421  LEU421      0.0270
     88  CG        33.9370   -4.4130   14.4620 C.3   421  LEU421      0.0019
     89  CD1       34.1770   -5.8740   14.8090 C.3   421  LEU421      0.0001
     90  CD2       35.0580   -3.9120   13.6080 C.3   421  LEU421      0.0001
     91  N         41.7010    7.1570   17.7320 N.3   522  ILE522     -0.1245
     92  CA        41.9620    5.8850   18.4530 C.3   522  ILE522      0.1561
     93  C         40.7020    5.0500   18.7560 C.2   522  ILE522      0.2260
     94  O         40.7790    3.8450   18.8740 O.2   522  ILE522     -0.2867
     95  CB        43.0580    5.9610   19.6240 C.3   522  ILE522      0.0252
     96  CG1       42.7680    4.9740   20.7620 C.3   522  ILE522      0.0019
     97  CG2       43.2550    7.3680   20.1620 C.3   522  ILE522      0.0019
     98  CD1       43.9270    4.7190   21.7380 C.3   522  ILE522      0.0001
     99  N         41.3590    0.5150   16.2430 N.3   526  LEU526     -0.1245
    100  CA        40.5700   -0.5850   16.7550 C.3   526  LEU526      0.1561
    101  C         39.4070   -1.1910   15.9040 C.2   526  LEU526      0.2260
    102  O         39.5460   -2.3190   15.4070 O.2   526  LEU526     -0.2867
    103  CB        40.0220   -0.1250   18.1200 C.3   526  LEU526      0.0270
    104  CG        40.8180    0.9600   18.8530 C.3   526  LEU526      0.0019
    105  CD1       40.3860    1.0270   20.3010 C.3   526  LEU526      0.0001
    106  CD2       42.3000    0.6730   18.7800 C.3   526  LEU526      0.0001
    107  N         40.7460   -2.6080   13.2780 N.3   529  THR529     -0.1203
    108  CA        41.8000   -3.5920   13.5550 C.3   529  THR529      0.1994
    109  C         41.2210   -4.6980   14.4270 C.2   529  THR529      0.2618
    110  O         41.9480   -5.6030   14.8650 O.2   529  THR529     -0.2717
    111  CB        43.0980   -3.0200   14.1390 C.3   529  THR529      0.1784
    112  OG1       43.7450   -2.2360   13.1300 O.3   529  THR529     -0.2211
    113  CG2       44.0190   -4.1520   14.5750 C.3   529  THR529      0.0376
    114  N         39.9120   -4.5890   14.6830 N.am  530  THR530     -0.1952
    115  CA        39.0530   -5.7670   14.6770 C.3   530  THR530      0.1897
    116  C         38.6250   -5.9490   13.2150 C.2   530  THR530      0.2313
    117  O         39.4770   -5.8790   12.3130 O.2   530  THR530     -0.2863
    118  CB        37.8120   -5.6290   15.5410 C.3   530  THR530      0.1794
    119  OG1       37.0410   -4.5360   15.0710 O.3   530  THR530     -0.2208
    120  CG2       38.1640   -5.3870   16.9810 C.3   530  THR530      0.0378
    121  N         40.4860   -9.1510   12.0810 N.3   533  LEU533     -0.1231
    122  CA        40.4370  -10.1810   13.1190 C.3   533  LEU533      0.1693
    123  C         39.1340  -10.9570   13.0820 C.2   533  LEU533      0.2591
    124  O         39.1630  -12.1600   12.8060 O.2   533  LEU533     -0.2718
    125  CB        40.6570   -9.5860   14.5170 C.3   533  LEU533      0.0284
    126  CG        42.0120   -9.9170   15.1140 C.3   533  LEU533      0.0019
    127  CD1       42.6210  -11.0620   14.3530 C.3   533  LEU533      0.0001
    128  CD2       42.9310   -8.7270   15.0970 C.3   533  LEU533      0.0001
    129  N         38.0120  -10.2680   13.3300 N.am  534  VAL534     -0.1980
    130  CA        36.7040  -10.9180   13.3330 C.3   534  VAL534      0.1595
    131  C         36.1680  -11.0460   11.9250 C.2   534  VAL534      0.2287
    132  O         35.0210  -10.7330   11.6070 O.2   534  VAL534     -0.2864
    133  CB        35.7130  -10.2950   14.3290 C.3   534  VAL534      0.0276
    134  CG1       35.9710  -10.8640   15.7170 C.3   534  VAL534      0.0022
    135  CG2       35.8080   -8.7680   14.3380 C.3   534  VAL534      0.0022
    136  N         46.7400   -2.5110   13.3690 N.3   582  MET582     -0.1245
    137  CA        46.9710   -2.3990   14.8100 C.3   582  MET582      0.1570
    138  C         48.2470   -1.6310   15.0650 C.2   582  MET582      0.2261
    139  O         48.2110   -0.6920   15.8340 O.2   582  MET582     -0.2867
    140  CB        46.9600   -3.7790   15.4870 C.3   582  MET582      0.0387
    141  CG        47.7380   -3.9260   16.7870 C.3   582  MET582      0.0595
    142  SD        49.5130   -3.7990   16.4330 S.3   582  MET582     -0.1393
    143  CE        50.2110   -5.1910   17.3320 C.3   582  MET582      0.0692
    144  N         47.1610    1.5620   14.5160 N.3   585  THR585     -0.1203
    145  CA        46.4490    2.0210   15.6770 C.3   585  THR585      0.1994
    146  C         47.3460    2.1650   16.9150 C.2   585  THR585      0.2617
    147  O         46.9170    2.7190   17.9290 O.2   585  THR585     -0.2717
    148  CB        45.2650    1.1300   15.9500 C.3   585  THR585      0.1784
    149  OG1       44.4790    1.0630   14.7520 O.3   585  THR585     -0.2211
    150  CG2       44.4200    1.7140   17.0950 C.3   585  THR585      0.0376
    151  N         48.5710    1.6510   16.8500 N.am  586  ILE586     -0.1979
    152  CA        49.6060    2.0870   17.7910 C.3   586  ILE586      0.1595
    153  C         50.3530    3.1330   17.0110 C.2   586  ILE586      0.2287
    154  O         50.8920    4.1080   17.5890 O.2   586  ILE586     -0.2864
    155  CB        50.5680    0.9840   18.2500 C.3   586  ILE586      0.0276
    156  CG1       49.7760   -0.2750   18.6050 C.3   586  ILE586      0.0022
    157  CG2       51.3270    1.4560   19.4700 C.3   586  ILE586      0.0022
    158  CD1       50.5190   -1.5840   18.3950 C.3   586  ILE586      0.0001
    159  N         48.5090    6.2750   18.7540 N.3   589  VAL589     -0.1245
    160  CA        48.5420    6.6240   20.1710 C.3   589  VAL589      0.1561
    161  C         49.8910    6.4290   20.8900 C.2   589  VAL589      0.2260
    162  O         49.9550    5.9280   22.0280 O.2   589  VAL589     -0.2867
    163  CB        47.4470    5.8780   20.9080 C.3   589  VAL589      0.0252
    164  CG1       46.9820    6.6950   22.1160 C.3   589  VAL589      0.0019
    165  CG2       46.2960    5.6660   19.9580 C.3   589  VAL589      0.0019
@<TRIPOS>BOND
     1    86    85    2
     2   132   131    2
     3    85    84    1
     4   131   130    1
     5   121   122    1
     6   117   116    2
     7    83    84    1
     8   124   123    2
     9    77    78    2
    10    77    76    1
    11    84    87    1
    12   123   122    1
    13   123   129   am
    14   122   125    1
    15    75    76    1
    16   112   111    1
    17   116   115    1
    18   107   108    1
    19   129   130    1
    20   130   133    1
    21   136   137    1
    22   108   111    1
    23   108   109    1
    24    90    88    1
    25    87    88    1
    26    76    79    1
    27   111   113    1
    28    81    79    1
    29   133   135    1
    30   133   134    1
    31   127   126    1
    32   109   114   am
    33   109   110    2
    34    88    89    1
    35   144   145    1
    36   125   126    1
    37   115   114    1
    38   115   118    1
    39   149   148    1
    40    79    80    1
    41   137   138    1
    42   137   140    1
    43    80    82    1
    44   138   139    2
    45   119   118    1
    46   128   126    1
    47   102   101    2
    48   140   141    1
    49   118   120    1
    50   145   148    1
    51   145   146    1
    52   101   100    1
    53   148   150    1
    54    99   100    1
    55    62    61    1
    56   142   141    1
    57   142   143    1
    58   100   103    1
    59   151   146   am
    60   151   152    1
    61   146   147    2
    62    67    66    2
    63   153   154    2
    64   153   152    1
    65    66    65    1
    66    68    65    1
    67    68    69    1
    68    61    63    1
    69    61    58    1
    70    91    92    1
    71   152   155    1
    72   103   104    1
    73   155   156    1
    74   155   157    1
    75    65    64    1
    76    69    71   ar
    77    69    70   ar
    78   158   156    1
    79    92    93    1
    80    92    95    1
    81    71    73   ar
    82    58    59    1
    83    58    57    1
    84   159   160    1
    85    93    94    2
    86   106   104    1
    87   104   105    1
    88    59    60    2
    89    70    72   ar
    90    73    74   ar
    91    72    74   ar
    92    95    97    1
    93    95    96    1
    94   165   163    1
    95    57    51   am
    96   160   161    1
    97   160   163    1
    98    47    46    1
    99    47    48    2
   100    52    51    2
   101    96    98    1
   102    46    45    1
   103   161   162    2
   104   163   164    1
   105    51    50    1
   106    45    42   am
   107    50    53    1
   108    50    49    1
   109    43    42    2
   110    53    54    1
   111    42    41    1
   112    39    37   am
   113    34    33    2
   114    33    32    1
   115    54    55    1
   116    37    38    2
   117    37    36    1
   118    41    40    1
   119    41    44    1
   120    35    36    1
   121    35    32    1
   122    55    56    1
   123    32    31    1
   124    13    12    1
   125    12     9    1
   126     1     2    1
   127     7     5    1
   128     2     5    1
   129     2     3    1
   130     9     8    1
   131     9    10    1
   132     5     6    1
   133    30    28   am
   134     4     3    2
   135    10    11    2
   136    10    14   am
   137    29    28    2
   138    28    27    1
   139    20    19    1
   140    14    15    1
   141    27    26    1
   142    22    23    1
   143    26    23    1
   144    15    18    1
   145    15    16    1
   146    19    18    1
   147    19    21    1
   148    23    24    1
   149    16    17    2
   150    24    25    2
