@<TRIPOS>MOLECULE
tmp/2o01N06.pdb
 103 102 0 0 0
SMALL
GASTEIGER

@<TRIPOS>ATOM
      1  N          2.6820    1.4480   44.9940 N.3   140  LEU140     -0.1231
      2  CA         2.9620    2.7640   44.4090 C.3   140  LEU140      0.1693
      3  C          2.3290    3.9880   45.0650 C.2   140  LEU140      0.2591
      4  O          2.8860    5.0840   44.9470 O.2   140  LEU140     -0.2718
      5  CB         2.7570    2.7910   42.8950 C.3   140  LEU140      0.0284
      6  CG         4.1040    2.9430   42.1700 C.3   140  LEU140      0.0019
      7  CD1        4.7910    4.2480   42.5700 C.3   140  LEU140      0.0001
      8  CD2        5.0510    1.7430   42.3760 C.3   140  LEU140      0.0001
      9  N          1.1950    3.8220   45.7490 N.am  141  ALA141     -0.1980
     10  CA         0.7260    4.8680   46.6420 C.3   141  ALA141      0.1597
     11  C          1.9300    5.2700   47.4720 C.2   141  ALA141      0.2287
     12  O          2.1960    6.4620   47.6470 O.2   141  ALA141     -0.2864
     13  CB        -0.3770    4.3600   47.5330 C.3   141  ALA141      0.0319
     14  N          5.4990    4.5690   47.0630 N.3   143  VAL143     -0.1231
     15  CA         6.6370    5.1130   46.3270 C.3   143  VAL143      0.1692
     16  C          6.2140    6.4990   45.8660 C.2   143  VAL143      0.2593
     17  O          6.8730    7.4980   46.1710 O.2   143  VAL143     -0.2718
     18  CB         7.1260    4.1850   45.1550 C.3   143  VAL143      0.0266
     19  CG1        7.8670    4.9770   44.0880 C.3   143  VAL143      0.0020
     20  CG2        8.0290    3.0660   45.6840 C.3   143  VAL143      0.0020
     21  N          5.0750    6.5480   45.1820 N.am  144  GLY144     -0.1942
     22  CA         4.4630    7.8000   44.7590 C.3   144  GLY144      0.2014
     23  C          4.9010    9.0120   45.5540 C.2   144  GLY144      0.2638
     24  O          5.2160   10.0470   44.9730 O.2   144  GLY144     -0.2714
     25  N          4.9290    8.8980   46.8780 N.am  145  PHE145     -0.1973
     26  CA         5.3280   10.0440   47.6890 C.3   145  PHE145      0.1639
     27  C          6.7360    9.9180   48.2640 C.2   145  PHE145      0.2290
     28  O          7.4270   10.9300   48.4060 O.2   145  PHE145     -0.2864
     29  CB         4.2400   10.4430   48.7130 C.3   145  PHE145      0.0560
     30  CG         2.9150   10.7590   48.0680 C.ar  145  PHE145     -0.0200
     31  CD1        2.8360   11.7370   47.0760 C.ar  145  PHE145     -0.0042
     32  CD2        1.7580   10.0570   48.4070 C.ar  145  PHE145     -0.0042
     33  CE1        1.6200   12.0330   46.4440 C.ar  145  PHE145     -0.0003
     34  CE2        0.5320   10.3460   47.7820 C.ar  145  PHE145     -0.0003
     35  CZ         0.4670   11.3420   46.7980 C.ar  145  PHE145     -0.0000
     36  N          9.0200    9.0640   46.6450 N.3   147  VAL147     -0.1231
     37  CA         9.7990    9.6650   45.5700 C.3   147  VAL147      0.1692
     38  C         10.1400   11.0840   45.9950 C.2   147  VAL147      0.2591
     39  O         11.2780   11.5090   45.8440 O.2   147  VAL147     -0.2718
     40  CB         9.0980    9.6050   44.1880 C.3   147  VAL147      0.0266
     41  CG1        7.7990   10.3560   44.1960 C.3   147  VAL147      0.0020
     42  CG2       10.0170   10.1410   43.1220 C.3   147  VAL147      0.0020
     43  N          9.1690   11.7880   46.5780 N.am  148  GLN148     -0.1979
     44  CA         9.4350   13.1130   47.1090 C.3   148  GLN148      0.1601
     45  C         10.0900   12.9520   48.4780 C.2   148  GLN148      0.2287
     46  O         10.8070   13.8520   48.9440 O.2   148  GLN148     -0.2864
     47  CB         8.1670   13.9870   47.1590 C.3   148  GLN148      0.0394
     48  CG         8.3620   15.4240   46.5880 C.3   148  GLN148      0.0908
     49  CD         8.8800   16.4700   47.6000 C.2   148  GLN148      0.2608
     50  OE1        8.8610   17.6720   47.3250 O.2   148  GLN148     -0.2717
     51  NE2        9.3290   16.0140   48.7660 N.am  148  GLN148     -0.0878
     52  N         -0.0230   19.8280   50.6240 N.3   160  ASN160     -0.1240
     53  CA        -0.5060   20.9900   49.9220 C.3   160  ASN160      0.1653
     54  C         -1.1670   22.0470   50.8010 C.2   160  ASN160      0.2266
     55  O         -2.2360   21.8390   51.3990 O.2   160  ASN160     -0.2867
     56  CB        -1.3880   20.5480   48.7640 C.3   160  ASN160      0.1155
     57  CG        -0.8640   19.2800   48.1100 C.2   160  ASN160      0.2627
     58  OD1        0.2560   19.2520   47.5860 O.2   160  ASN160     -0.2716
     59  ND2       -1.6550   18.2100   48.1770 N.am  160  ASN160     -0.0877
     60  N          0.5650   21.3020   43.9080 N.3   164  HIS164     -0.1226
     61  CA         0.6480   19.8590   43.8380 C.3   164  HIS164      0.1752
     62  C          1.9970   19.4070   43.3210 C.2   164  HIS164      0.2596
     63  O          2.1300   18.3150   42.7700 O.2   164  HIS164     -0.2718
     64  CB        -0.5050   19.2820   43.0150 C.3   164  HIS164      0.0759
     65  CG        -1.8360   19.4060   43.6850 C.ar  164  HIS164      0.0818
     66  ND1       -2.9230   19.9950   43.0750 N.ar  164  HIS164     -0.2268
     67  CD2       -2.2480   19.0400   44.9220 C.ar  164  HIS164      0.1154
     68  CE1       -3.9470   19.9830   43.9080 C.ar  164  HIS164      0.1986
     69  NE2       -3.5670   19.4020   45.0310 N.ar  164  HIS164     -0.2212
     70  N          2.9920   20.2720   43.4900 N.am  165  LEU165     -0.1966
     71  CA         4.3800   19.8300   43.4650 C.3   165  LEU165      0.1728
     72  C          4.5920   18.5640   42.6130 C.2   165  LEU165      0.2616
     73  O          4.7780   17.4790   43.1670 O.2   165  LEU165     -0.2715
     74  CB         4.8150   19.5650   44.9070 C.3   165  LEU165      0.0311
     75  CG         6.2750   19.3330   45.3160 C.3   165  LEU165      0.0022
     76  CD1        6.2840   18.9090   46.7710 C.3   165  LEU165      0.0001
     77  CD2        7.0310   18.2950   44.4710 C.3   165  LEU165      0.0001
     78  N          4.5520   18.6730   41.2800 N.am  166  ALA166     -0.1977
     79  CA         4.3570   19.9320   40.5140 C.3   166  ALA166      0.1597
     80  C          5.2350   21.0990   40.9890 C.2   166  ALA166      0.2287
     81  O          4.8630   21.8830   41.8740 O.2   166  ALA166     -0.2864
     82  CB         2.8640   20.3260   40.4170 C.3   166  ALA166      0.0319
     83  N          8.1640   22.1450   38.4510 N.3   168  PRO168     -0.2102
     84  CA         7.7520   20.7600   38.2070 C.3   168  PRO168      0.1504
     85  C          8.8600   19.7310   38.0720 C.2   168  PRO168      0.2575
     86  O          8.5590   18.5450   37.8120 O.2   168  PRO168     -0.2718
     87  CB         7.0430   20.8690   36.8690 C.3   168  PRO168      0.0282
     88  CG         7.8680   21.9200   36.1210 C.3   168  PRO168      0.0208
     89  CD         8.5440   22.8270   37.1560 C.3   168  PRO168      0.0893
     90  N         10.1090   20.1740   38.2420 N.am  169  TRP169     -0.1977
     91  CA        11.2670   19.4300   37.7500 C.3   169  TRP169      0.1640
     92  C         11.4570   19.7530   36.2720 C.2   169  TRP169      0.2290
     93  O         12.2610   20.6250   35.9410 O.2   169  TRP169     -0.2864
     94  CB        11.1110   17.9180   37.9700 C.3   169  TRP169      0.0576
     95  CG        11.8050   17.4190   39.1710 C.ar  169  TRP169      0.0006
     96  CD1       11.5220   16.2850   39.8590 C.ar  169  TRP169      0.0946
     97  CD2       12.9180   18.0300   39.8410 C.ar  169  TRP169      0.0152
     98  NE1       12.3930   16.1390   40.9130 N.ar  169  TRP169     -0.2442
     99  CE2       13.2590   17.1990   40.9230 C.ar  169  TRP169      0.0810
    100  CE3       13.6580   19.2040   39.6330 C.ar  169  TRP169      0.0012
    101  CZ2       14.3100   17.5010   41.7940 C.ar  169  TRP169      0.0191
    102  CZ3       14.7000   19.5060   40.4990 C.ar  169  TRP169      0.0001
    103  CH2       15.0160   18.6580   41.5620 C.ar  169  TRP169      0.0015
@<TRIPOS>BOND
     1    93    92    2
     2    88    87    1
     3    88    89    1
     4    92    91    1
     5    87    84    1
     6    89    83    1
     7    91    94    1
     8    91    90    1
     9    86    85    2
    10    94    95    1
    11    85    84    1
    12    85    90   am
    13    84    83    1
    14    95    97   ar
    15    95    96   ar
    16   100    97   ar
    17   100   102   ar
    18    97    99   ar
    19    96    98   ar
    20    82    79    1
    21   102   103   ar
    22    79    80    1
    23    79    78    1
    24    98    99   ar
    25    99   101   ar
    26    80    81    2
    27    78    72   am
    28   103   101   ar
    29     6     8    1
    30     6     7    1
    31     6     5    1
    32    72    73    2
    33    72    71    1
    34    63    62    2
    35     5     2    1
    36    64    65    1
    37    64    61    1
    38    66    65   ar
    39    66    68   ar
    40    42    40    1
    41    62    70   am
    42    62    61    1
    43    71    70    1
    44    71    74    1
    45    65    67   ar
    46    61    60    1
    47    68    69   ar
    48    19    18    1
    49    40    41    1
    50    40    37    1
    51     2     1    1
    52     2     3    1
    53    77    75    1
    54    22    21    1
    55    22    23    1
    56    74    75    1
    57    67    69   ar
    58     4     3    2
    59    24    23    2
    60     3     9   am
    61    18    20    1
    62    18    15    1
    63    21    16   am
    64    75    76    1
    65    23    25   am
    66    37    38    1
    67    37    36    1
    68     9    10    1
    69    39    38    2
    70    16    17    2
    71    16    15    1
    72    38    43   am
    73    15    14    1
    74    33    35   ar
    75    33    31   ar
    76    43    44    1
    77    48    47    1
    78    48    49    1
    79    10    11    1
    80    10    13    1
    81    35    34   ar
    82    25    26    1
    83    31    30   ar
    84    44    47    1
    85    44    45    1
    86    50    49    2
    87    11    12    2
    88    58    57    2
    89    49    51   am
    90    26    27    1
    91    26    29    1
    92    34    32   ar
    93    30    32   ar
    94    30    29    1
    95    57    59   am
    96    57    56    1
    97    27    28    2
    98    45    46    2
    99    56    53    1
   100    53    52    1
   101    53    54    1
   102    54    55    2
