@<TRIPOS>MOLECULE
tmp/2o01A42.pdb
 118 118 0 0 0
SMALL
GASTEIGER

@<TRIPOS>ATOM
      1  N         27.0560    7.5310  -38.1720 N.3     1  PHE1       -0.1227
      2  CA        27.5270    6.1960  -37.7360 C.3     1  PHE1        0.1736
      3  C         28.7350    6.1700  -36.7780 C.2     1  PHE1        0.2595
      4  O         29.5970    7.0610  -36.8290 O.2     1  PHE1       -0.2718
      5  CB        27.7680    5.2560  -38.9350 C.3     1  PHE1        0.0547
      6  CG        29.1600    5.3190  -39.5020 C.ar    1  PHE1       -0.0202
      7  CD1       29.3540    5.5540  -40.8610 C.ar    1  PHE1       -0.0042
      8  CD2       30.2780    5.1280  -38.6900 C.ar    1  PHE1       -0.0042
      9  CE1       30.6430    5.6050  -41.4000 C.ar    1  PHE1       -0.0003
     10  CE2       31.5660    5.1860  -39.2030 C.ar    1  PHE1       -0.0003
     11  CZ        31.7550    5.4200  -40.5620 C.ar    1  PHE1       -0.0000
     12  N         28.8030    5.1400  -35.9240 N.am    2  GLU2       -0.1965
     13  CA        27.7930    4.0680  -35.8690 C.3     2  GLU2        0.1733
     14  C         26.6530    4.3900  -34.8420 C.2     2  GLU2        0.2616
     15  O         25.6300    4.9260  -35.2550 O.2     2  GLU2       -0.2715
     16  CB        28.4290    2.6660  -35.7060 C.3     2  GLU2        0.0429
     17  CG        29.7830    2.4390  -36.4310 C.3     2  GLU2        0.1163
     18  CD        29.6970    1.6670  -37.7800 C.2     2  GLU2        0.3649
     19  OE1       30.7260    1.0600  -38.1810 O.co2   2  GLU2       -0.2457
     20  OE2       28.6270    1.6610  -38.4490 O.co2   2  GLU2       -0.2457
     21  N         26.7720    4.1150  -33.5370 N.am    3  GLN3       -0.1977
     22  CA        27.9120    3.4960  -32.8660 C.3     3  GLN3        0.1601
     23  C         27.3820    3.0210  -31.5190 C.2     3  GLN3        0.2287
     24  O         26.2580    2.5020  -31.4230 O.2     3  GLN3       -0.2864
     25  CB        29.0060    4.5440  -32.6340 C.3     3  GLN3        0.0394
     26  CG        30.4300    4.0120  -32.5750 C.3     3  GLN3        0.0908
     27  CD        31.4340    5.0330  -33.0800 C.2     3  GLN3        0.2608
     28  OE1       32.6160    4.9660  -32.7680 O.2     3  GLN3       -0.2717
     29  NE2       30.9610    5.9900  -33.8580 N.am    3  GLN3       -0.0878
     30  N         43.8810    3.4280  -36.7200 N.3    47  LYS47      -0.1245
     31  CA        43.5340    3.9080  -35.3900 C.3    47  LYS47       0.1561
     32  C         44.7240    4.6900  -34.8520 C.2    47  LYS47       0.2260
     33  O         44.5640    5.7550  -34.2390 O.2    47  LYS47      -0.2867
     34  CB        43.1710    2.7790  -34.4240 C.3    47  LYS47       0.0271
     35  CG        41.6960    2.7480  -34.0180 C.3    47  LYS47       0.0035
     36  CD        40.9300    1.6980  -34.8240 C.3    47  LYS47       0.0206
     37  CE        39.7500    1.1100  -34.0530 C.3    47  LYS47       0.1093
     38  NZ        38.4340    1.7380  -34.4180 N.3    47  LYS47      -0.1314
     39  N         44.9950    8.0730  -35.5010 N.3    50  SER50      -0.1202
     40  CA        43.6360    8.5480  -35.2870 C.3    50  SER50       0.2020
     41  C         43.3150    9.1040  -33.8530 C.2    50  SER50       0.2618
     42  O         42.3170    9.7960  -33.7100 O.2    50  SER50      -0.2717
     43  CB        42.6330    7.4760  -35.7420 C.3    50  SER50       0.2103
     44  OG        43.0330    6.8970  -36.9770 O.3    50  SER50      -0.2182
     45  N         44.1680    8.9470  -32.8360 N.am   51  ALA51      -0.1979
     46  CA        45.5960    8.6890  -32.9700 C.3    51  ALA51       0.1597
     47  C         46.3030    8.7040  -31.6050 C.2    51  ALA51       0.2287
     48  O         45.8380    7.9720  -30.7240 O.2    51  ALA51      -0.2864
     49  CB        46.1940    9.6870  -33.9000 C.3    51  ALA51       0.0319
     50  N         46.3990   11.6150  -32.9750 N.3    53  PHE53      -0.1241
     51  CA        45.6410   12.7710  -33.3710 C.3    53  PHE53       0.1605
     52  C         45.5760   13.6700  -32.1520 C.2    53  PHE53       0.2264
     53  O         46.5980   14.2020  -31.7030 O.2    53  PHE53      -0.2867
     54  CB        44.2200   12.3280  -33.7450 C.3    53  PHE53       0.0534
     55  CG        43.9510   12.2590  -35.2220 C.ar   53  PHE53      -0.0203
     56  CD1       42.7920   11.6430  -35.6870 C.ar   53  PHE53      -0.0042
     57  CD2       44.8250   12.8420  -36.1440 C.ar   53  PHE53      -0.0042
     58  CE1       42.5190   11.5700  -37.0340 C.ar   53  PHE53      -0.0003
     59  CE2       44.5530   12.7820  -37.5260 C.ar   53  PHE53      -0.0003
     60  CZ        43.3930   12.1400  -37.9690 C.ar   53  PHE53      -0.0000
     61  N         42.1990   18.1730  -35.2240 N.3   149  LEU149     -0.1245
     62  CA        41.1780   17.2580  -34.6950 C.3   149  LEU149      0.1561
     63  C         40.0380   17.0930  -35.7140 C.2   149  LEU149      0.2260
     64  O         39.1180   16.2930  -35.5110 O.2   149  LEU149     -0.2867
     65  CB        40.6590   17.7060  -33.3030 C.3   149  LEU149      0.0270
     66  CG        39.7950   16.7510  -32.4520 C.3   149  LEU149      0.0019
     67  CD1       40.3620   16.5420  -31.0680 C.3   149  LEU149      0.0001
     68  CD2       38.3280   17.2180  -32.3830 C.3   149  LEU149      0.0001
     69  N         40.1830   13.4760  -37.6650 N.3   152  GLY152     -0.1210
     70  CA        39.5180   12.2790  -37.1700 C.3   152  GLY152      0.1956
     71  C         38.4410   12.0150  -38.1790 C.2   152  GLY152      0.2611
     72  O         38.4120   10.9530  -38.8360 O.2   152  GLY152     -0.2717
     73  N         37.6030   13.0350  -38.3340 N.am  153  TRP153     -0.1976
     74  CA        36.5220   13.0260  -39.2990 C.3   153  TRP153      0.1640
     75  C         37.0040   13.0910  -40.7670 C.2   153  TRP153      0.2290
     76  O         36.3000   12.6240  -41.6680 O.2   153  TRP153     -0.2864
     77  CB        35.5530   14.1710  -39.0030 C.3   153  TRP153      0.0576
     78  CG        34.1240   13.7320  -38.8980 C.ar  153  TRP153      0.0006
     79  CD1       33.2710   13.9650  -37.8540 C.ar  153  TRP153      0.0946
     80  CD2       33.3760   12.9740  -39.8630 C.ar  153  TRP153      0.0152
     81  NE1       32.0360   13.4100  -38.1110 N.ar  153  TRP153     -0.2442
     82  CE2       32.0720   12.7960  -39.3360 C.ar  153  TRP153      0.0810
     83  CE3       33.6710   12.4420  -41.1280 C.ar  153  TRP153      0.0012
     84  CZ2       31.0710   12.0950  -40.0290 C.ar  153  TRP153      0.0191
     85  CZ3       32.6790   11.7540  -41.8090 C.ar  153  TRP153      0.0001
     86  CH2       31.3990   11.5790  -41.2570 C.ar  153  TRP153      0.0015
     87  N         39.6630   11.5160  -42.5310 N.3   155  HIS155     -0.1226
     88  CA        39.8300   10.1670  -43.0550 C.3   155  HIS155      0.1752
     89  C         38.7680    9.2030  -42.4910 C.2   155  HIS155      0.2596
     90  O         37.5700    9.4370  -42.6470 O.2   155  HIS155     -0.2718
     91  CB        41.2480    9.6810  -42.7380 C.3   155  HIS155      0.0759
     92  CG        41.4500    9.3280  -41.2990 C.ar  155  HIS155      0.0818
     93  ND1       40.9160   10.0740  -40.2670 N.ar  155  HIS155     -0.2268
     94  CD2       42.1110    8.2960  -40.7180 C.ar  155  HIS155      0.1154
     95  CE1       41.2410    9.5180  -39.1140 C.ar  155  HIS155      0.1986
     96  NE2       41.9700    8.4410  -39.3590 N.ar  155  HIS155     -0.2212
     97  N         39.2490    8.1170  -41.8810 N.am  156  TYR156     -0.1962
     98  CA        38.4950    7.0430  -41.1820 C.3   156  TYR156      0.1771
     99  C         36.9810    6.8460  -41.3760 C.2   156  TYR156      0.2619
    100  O         36.5330    5.7350  -41.6470 O.2   156  TYR156     -0.2715
    101  CB        38.8190    7.0350  -39.6700 C.3   156  TYR156      0.0574
    102  CG        38.2900    5.8020  -38.9610 C.ar  156  TYR156     -0.0198
    103  CD1       38.3870    4.5390  -39.5500 C.ar  156  TYR156     -0.0009
    104  CD2       37.6960    5.8930  -37.7100 C.ar  156  TYR156     -0.0009
    105  CE1       37.9010    3.4100  -38.9190 C.ar  156  TYR156      0.0417
    106  CE2       37.2090    4.7580  -37.0660 C.ar  156  TYR156      0.0417
    107  CZ        37.3210    3.5240  -37.6720 C.ar  156  TYR156      0.1957
    108  OH        36.8510    2.4000  -37.0400 O.3   156  TYR156     -0.2866
    109  N         36.2370    7.9400  -41.2460 N.am  157  HIS157     -0.1973
    110  CA        34.8360    7.9620  -40.8390 C.3   157  HIS157      0.1656
    111  C         33.9350    8.0560  -42.0710 C.2   157  HIS157      0.2291
    112  O         33.1720    7.1490  -42.3720 O.2   157  HIS157     -0.2864
    113  CB        34.6850    9.1760  -39.9030 C.3   157  HIS157      0.0771
    114  CG        33.6370    9.0170  -38.8470 C.ar  157  HIS157      0.0820
    115  ND1       32.9960   10.0970  -38.2810 N.ar  157  HIS157     -0.2267
    116  CD2       33.1060    7.9130  -38.2660 C.ar  157  HIS157      0.1154
    117  CE1       32.1080    9.6650  -37.4040 C.ar  157  HIS157      0.1986
    118  NE2       32.1490    8.3430  -37.3820 N.ar  157  HIS157     -0.2212
@<TRIPOS>BOND
     1    88    91    1
     2    88    87    1
     3    88    89    1
     4    91    92    1
     5    90    89    2
     6    89    97   am
     7   112   111    2
     8   111   110    1
     9    97    98    1
    10    85    86   ar
    11    85    83   ar
    12    76    75    2
    13   100    99    2
    14     9     7   ar
    15     9    11   ar
    16    99   109   am
    17    99    98    1
    18    92    94   ar
    19    92    93   ar
    20    86    84   ar
    21   109   110    1
    22    98   101    1
    23    83    80   ar
    24     7     6   ar
    25   110   113    1
    26    75    74    1
    27    94    96   ar
    28    11    10   ar
    29    93    95   ar
    30    84    82   ar
    31   113   114    1
    32    80    82   ar
    33    80    78   ar
    34   101   102    1
    35   103   102   ar
    36   103   105   ar
    37     6     5    1
    38     6     8   ar
    39    96    95   ar
    40    82    81   ar
    41    74    77    1
    42    74    73    1
    43    10     8   ar
    44    77    78    1
    45   102   104   ar
    46     5     2    1
    47   105   107   ar
    48    78    79   ar
    49   114   115   ar
    50   114   116   ar
    51    72    71    2
    52    20    18   ar
    53    73    71   am
    54   115   117   ar
    55   116   118   ar
    56    19    18   ar
    57    71    70    1
    58     1     2    1
    59    81    79   ar
    60    60    59   ar
    61    60    58   ar
    62    18    17    1
    63     2     3    1
    64   104   106   ar
    65   107   106   ar
    66   107   108    1
    67    69    70    1
    68    59    57   ar
    69   117   118   ar
    70    58    56   ar
    71    44    43    1
    72     4     3    2
    73     3    12   am
    74    30    31    1
    75    17    16    1
    76    57    55   ar
    77    12    13    1
    78    13    16    1
    79    13    14    1
    80    43    40    1
    81    63    64    2
    82    63    62    1
    83    56    55   ar
    84    39    40    1
    85    31    32    1
    86    31    34    1
    87    40    41    1
    88    15    14    2
    89    61    62    1
    90    55    54    1
    91    32    33    2
    92    14    21   am
    93    36    37    1
    94    36    35    1
    95    62    65    1
    96    34    35    1
    97    38    37    1
    98    49    46    1
    99    29    27   am
   100    41    42    2
   101    41    45   am
   102    54    51    1
   103    21    22    1
   104    51    50    1
   105    51    52    1
   106    65    66    1
   107    27    28    2
   108    27    26    1
   109    46    45    1
   110    46    47    1
   111    22    25    1
   112    22    23    1
   113    25    26    1
   114    66    68    1
   115    66    67    1
   116    52    53    2
   117    47    48    2
   118    23    24    2
