@<TRIPOS>MOLECULE
tmp/2o01B03.pdb
 104 107 0 0 0
SMALL
GASTEIGER

@<TRIPOS>ATOM
      1  N         79.8080   -2.0890   27.3140 N.3    90  ILE90      -0.1231
      2  CA        79.6660   -2.3950   25.8840 C.3    90  ILE90       0.1692
      3  C         80.9700   -2.7440   25.1630 C.2    90  ILE90       0.2592
      4  O         81.6620   -1.8690   24.6390 O.2    90  ILE90      -0.2718
      5  CB        78.9460   -1.2530   25.1540 C.3    90  ILE90       0.0266
      6  CG1       77.4570   -1.2290   25.5380 C.3    90  ILE90       0.0019
      7  CG2       79.0390   -1.4490   23.6550 C.3    90  ILE90       0.0020
      8  CD1       77.1220   -0.8000   26.9580 C.3    90  ILE90       0.0001
      9  N         81.2800   -4.0410   25.1330 N.am   91  TRP91      -0.1962
     10  CA        82.5450   -4.5660   24.5990 C.3    91  TRP91       0.1771
     11  C         82.5140   -4.5970   23.0780 C.2    91  TRP91       0.2620
     12  O         82.4360   -5.6790   22.4500 O.2    91  TRP91      -0.2715
     13  CB        82.7780   -5.9750   25.1290 C.3    91  TRP91       0.0590
     14  CG        83.9900   -6.6010   24.5610 C.ar   91  TRP91       0.0006
     15  CD1       84.0700   -7.7690   23.8410 C.ar   91  TRP91       0.0946
     16  CD2       85.3150   -6.0830   24.6330 C.ar   91  TRP91       0.0152
     17  NE1       85.3720   -8.0140   23.4710 N.ar   91  TRP91      -0.2442
     18  CE2       86.1600   -6.9930   23.9410 C.ar   91  TRP91       0.0810
     19  CE3       85.8800   -4.9400   25.2240 C.ar   91  TRP91       0.0012
     20  CZ2       87.5450   -6.7920   23.8290 C.ar   91  TRP91       0.0191
     21  CZ3       87.2580   -4.7450   25.1140 C.ar   91  TRP91       0.0001
     22  CH2       88.0750   -5.6730   24.4260 C.ar   91  TRP91       0.0015
     23  N         82.5410   -3.4060   22.4780 N.am   92  ASP92      -0.1958
     24  CA        82.3680   -3.3160   21.0420 C.3    92  ASP92       0.1825
     25  C         83.6400   -2.9140   20.3530 C.2    92  ASP92       0.2464
     26  O         83.9070   -1.7310   20.1820 O.2    92  ASP92      -0.2730
     27  CB        81.2410   -2.3770   20.6730 C.3    92  ASP92       0.1450
     28  CG        80.8430   -2.5390   19.2490 C.2    92  ASP92       0.3671
     29  OD1       81.5410   -3.3080   18.5630 O.co2  92  ASP92      -0.2456
     30  OD2       79.8560   -1.9260   18.8040 O.co2  92  ASP92      -0.2456
     31  N         84.4540   -3.9060   19.9840 N.am   93  PRO93      -0.2715
     32  CA        85.8190   -3.6700   19.4640 C.3    93  PRO93       0.1536
     33  C         85.9730   -2.8760   18.1320 C.2    93  PRO93       0.2599
     34  O         87.1020   -2.7600   17.5980 O.2    93  PRO93      -0.2715
     35  CB        86.4150   -5.0870   19.4290 C.3    93  PRO93       0.0310
     36  CG        85.5390   -5.8740   20.4820 C.3    93  PRO93       0.0237
     37  CD        84.1830   -5.3440   20.1530 C.3    93  PRO93       0.0939
     38  N         84.8540   -2.2990   17.6650 N.am   94  HIS94      -0.1960
     39  CA        84.8210   -1.3570   16.5270 C.3    94  HIS94       0.1787
     40  C         84.8120    0.1480   16.8730 C.2    94  HIS94       0.2620
     41  O         84.9920    0.9890   15.9680 O.2    94  HIS94      -0.2715
     42  CB        83.6230   -1.6390   15.6340 C.3    94  HIS94       0.0785
     43  CG        83.6170   -3.0060   15.0510 C.ar   94  HIS94       0.0821
     44  ND1       82.4580   -3.6250   14.6460 N.ar   94  HIS94      -0.2267
     45  CD2       84.6210   -3.8780   14.8050 C.ar   94  HIS94       0.1154
     46  CE1       82.7490   -4.8220   14.1660 C.ar   94  HIS94       0.1986
     47  NE2       84.0540   -5.0020   14.2550 N.ar   94  HIS94      -0.2212
     48  N         84.6050    0.4830   18.1530 N.am   95  PHE95      -0.1974
     49  CA        84.3640    1.8820   18.5550 C.3    95  PHE95       0.1639
     50  C         85.6440    2.7140   18.6630 C.2    95  PHE95       0.2290
     51  O         86.5640    2.3500   19.4100 O.2    95  PHE95      -0.2864
     52  CB        83.5470    1.9710   19.8500 C.3    95  PHE95       0.0560
     53  CG        82.0340    1.8040   19.6630 C.ar   95  PHE95      -0.0200
     54  CD1       81.1560    2.7940   20.0880 C.ar   95  PHE95      -0.0042
     55  CD2       81.4880    0.6510   19.1020 C.ar   95  PHE95      -0.0042
     56  CE1       79.7760    2.6410   19.9440 C.ar   95  PHE95      -0.0003
     57  CE2       80.1140    0.5130   18.9580 C.ar   95  PHE95      -0.0003
     58  CZ        79.2720    1.5050   19.3830 C.ar   95  PHE95      -0.0000
     59  N         80.9680    6.9810   25.2030 N.3   103  PHE103     -0.1241
     60  CA        79.9700    6.8340   26.2600 C.3   103  PHE103      0.1605
     61  C         80.5460    6.8510   27.7190 C.2   103  PHE103      0.2264
     62  O         79.8780    6.4060   28.6720 O.2   103  PHE103     -0.2867
     63  CB        79.0610    5.6000   25.9900 C.3   103  PHE103      0.0534
     64  CG        78.6120    5.4320   24.5380 C.ar  103  PHE103     -0.0203
     65  CD1       79.5190    5.4790   23.4790 C.ar  103  PHE103     -0.0042
     66  CD2       77.2780    5.1760   24.2440 C.ar  103  PHE103     -0.0042
     67  CE1       79.1050    5.3290   22.1600 C.ar  103  PHE103     -0.0003
     68  CE2       76.8410    5.0150   22.9140 C.ar  103  PHE103     -0.0003
     69  CZ        77.7520    5.0860   21.8800 C.ar  103  PHE103     -0.0000
     70  N         75.7400    1.6850   28.3060 N.3   113  ASN113     -0.1240
     71  CA        74.3790    1.9660   27.8520 C.3   113  ASN113      0.1653
     72  C         73.5590    2.7430   28.8650 C.2   113  ASN113      0.2266
     73  O         73.6850    2.5560   30.0730 O.2   113  ASN113     -0.2867
     74  CB        73.6240    0.6630   27.4980 C.3   113  ASN113      0.1155
     75  CG        73.8560    0.2220   26.0670 C.2   113  ASN113      0.2627
     76  OD1       72.9320   -0.1750   25.3470 O.2   113  ASN113     -0.2716
     77  ND2       75.1010    0.3080   25.6410 N.am  113  ASN113     -0.0877
     78  N         74.9340    9.3790   19.2620 N.3   643  SER643     -0.1202
     79  CA        75.4800    8.5400   18.1490 C.3   643  SER643      0.2020
     80  C         74.6650    7.3580   17.5690 C.2   643  SER643      0.2618
     81  O         74.5550    7.2210   16.3290 O.2   643  SER643     -0.2717
     82  CB        76.8540    7.9850   18.5820 C.3   643  SER643      0.2103
     83  OG        77.6090    7.4700   17.4920 O.3   643  SER643     -0.2182
     84  N         74.1460    6.5060   18.4650 N.am  644  VAL644     -0.1979
     85  CA        73.5080    5.2170   18.1120 C.3   644  VAL644      0.1595
     86  C         72.3300    5.2980   17.1440 C.2   644  VAL644      0.2287
     87  O         72.4990    4.9240   16.0030 O.2   644  VAL644     -0.2864
     88  CB        73.2060    4.3120   19.3860 C.3   644  VAL644      0.0276
     89  CG1       71.9580    3.4110   19.2370 C.3   644  VAL644      0.0022
     90  CG2       74.4250    3.4640   19.7300 C.3   644  VAL644      0.0022
     91  N         72.3710    5.9070   14.1550 N.3   647  TRP647     -0.1241
     92  CA        72.5440    4.6260   13.4020 C.3   647  TRP647      0.1605
     93  C         71.3320    3.7210   13.4490 C.2   647  TRP647      0.2264
     94  O         70.8230    3.3240   12.4070 O.2   647  TRP647     -0.2867
     95  CB        73.7140    3.7700   13.8840 C.3   647  TRP647      0.0550
     96  CG        73.8360    2.5750   12.9740 C.ar  647  TRP647      0.0003
     97  CD1       73.7300    2.5980   11.6120 C.ar  647  TRP647      0.0946
     98  CD2       74.0590    1.1920   13.3240 C.ar  647  TRP647      0.0152
     99  NE1       73.8940    1.3350   11.0970 N.ar  647  TRP647     -0.2442
    100  CE2       74.0960    0.4580   12.1250 C.ar  647  TRP647      0.0810
    101  CE3       74.2460    0.5130   14.5190 C.ar  647  TRP647      0.0012
    102  CZ2       74.3100   -0.9120   12.0930 C.ar  647  TRP647      0.0191
    103  CZ3       74.4720   -0.8470   14.4730 C.ar  647  TRP647      0.0001
    104  CH2       74.4940   -1.5450   13.2760 C.ar  647  TRP647      0.0015
@<TRIPOS>BOND
     1    99    97   ar
     2    99   100   ar
     3    97    96   ar
     4   102   100   ar
     5   102   104   ar
     6   100    98   ar
     7    94    93    2
     8    96    98   ar
     9    96    95    1
    10   104   103   ar
    11    98   101   ar
    12    92    93    1
    13    92    95    1
    14    92    91    1
    15    46    47   ar
    16    46    44   ar
    17    47    45   ar
    18   103   101   ar
    19    44    43   ar
    20    45    43   ar
    21    43    42    1
    22    42    39    1
    23    41    40    2
    24    87    86    2
    25    81    80    2
    26    39    40    1
    27    39    38    1
    28    40    48   am
    29    86    85    1
    30    83    82    1
    31    80    79    1
    32    80    84   am
    33    34    33    2
    34    38    33   am
    35    85    84    1
    36    85    88    1
    37    33    32    1
    38    79    82    1
    39    79    78    1
    40    48    49    1
    41    49    50    1
    42    49    52    1
    43    29    28   ar
    44    50    51    2
    45    30    28   ar
    46    57    55   ar
    47    57    58   ar
    48    55    53   ar
    49    89    88    1
    50    28    27    1
    51    58    56   ar
    52    88    90    1
    53    35    32    1
    54    35    36    1
    55    32    31    1
    56    53    52    1
    57    53    54   ar
    58    56    54   ar
    59    31    37    1
    60    31    25   am
    61    37    36    1
    62    26    25    2
    63    25    24    1
    64    27    24    1
    65    24    23    1
    66    69    67   ar
    67    69    68   ar
    68    67    65   ar
    69    12    11    2
    70    23    11   am
    71    68    66   ar
    72    11    10    1
    73    17    15   ar
    74    17    18   ar
    75    65    64   ar
    76     7     5    1
    77    20    18   ar
    78    20    22   ar
    79    15    14   ar
    80    18    16   ar
    81    66    64   ar
    82    22    21   ar
    83    64    63    1
    84    14    16   ar
    85    14    13    1
    86    10    13    1
    87    10     9    1
    88    16    19   ar
    89     4     3    2
    90    21    19   ar
    91     9     3   am
    92     5     6    1
    93     5     2    1
    94     3     2    1
    95    59    60    1
    96    76    75    2
    97     6     8    1
    98    77    75   am
    99     2     1    1
   100    63    60    1
   101    75    74    1
   102    60    61    1
   103    74    71    1
   104    61    62    2
   105    71    70    1
   106    71    72    1
   107    72    73    2
