@<TRIPOS>MOLECULE
tmp/2o01L04.pdb
 114 110 0 0 0
SMALL
GASTEIGER

@<TRIPOS>ATOM
      1  N         94.6030  -23.4050  -19.7560 N.3    32  TYR32      -0.1227
      2  CA        94.4210  -23.0440  -18.3590 C.3    32  TYR32       0.1736
      3  C         93.6300  -24.1500  -17.6860 C.2    32  TYR32       0.2595
      4  O         94.1980  -25.1130  -17.1680 O.2    32  TYR32      -0.2718
      5  CB        93.6340  -21.7360  -18.2540 C.3    32  TYR32       0.0548
      6  CG        94.4080  -20.5860  -17.6990 C.ar   32  TYR32      -0.0200
      7  CD1       94.4490  -20.3580  -16.3170 C.ar   32  TYR32      -0.0009
      8  CD2       95.0870  -19.7140  -18.5490 C.ar   32  TYR32      -0.0009
      9  CE1       95.1640  -19.2950  -15.7860 C.ar   32  TYR32       0.0417
     10  CE2       95.8120  -18.6460  -18.0400 C.ar   32  TYR32       0.0417
     11  CZ        95.8520  -18.4380  -16.6550 C.ar   32  TYR32       0.1957
     12  OH        96.5840  -17.3730  -16.1650 O.3    32  TYR32      -0.2866
     13  N         92.3100  -23.9860  -17.7540 N.am   33  LEU33      -0.1980
     14  CA        91.2990  -24.8290  -17.1370 C.3    33  LEU33       0.1596
     15  C         91.6650  -26.3110  -17.1640 C.2    33  LEU33       0.2287
     16  O         90.7770  -27.1690  -17.2380 O.2    33  LEU33      -0.2864
     17  CB        89.9530  -24.6120  -17.8620 C.3    33  LEU33       0.0297
     18  CG        89.3940  -23.2190  -18.2500 C.3    33  LEU33       0.0022
     19  CD1       89.2020  -22.2930  -17.0600 C.3    33  LEU33       0.0001
     20  CD2       90.2080  -22.5010  -19.3060 C.3    33  LEU33       0.0001
     21  N         95.8540  -26.2670  -13.2930 N.3    36  LEU36      -0.1231
     22  CA        95.2940  -26.1400  -11.9670 C.3    36  LEU36       0.1678
     23  C         94.1120  -27.1230  -11.9960 C.2    36  LEU36       0.2434
     24  O         93.5220  -27.3260  -13.0530 O.2    36  LEU36      -0.2733
     25  CB        94.8290  -24.6950  -11.7090 C.3    36  LEU36       0.0284
     26  CG        94.4940  -23.8050  -12.9130 C.3    36  LEU36       0.0019
     27  CD1       93.2170  -23.0360  -12.7050 C.3    36  LEU36       0.0001
     28  CD2       95.6390  -22.8870  -13.2530 C.3    36  LEU36       0.0001
     29  N         93.7670  -27.7410  -10.8540 N.am   37  PRO37      -0.2718
     30  CA        92.6580  -28.6870  -10.7330 C.3    37  PRO37       0.1535
     31  C         91.5160  -28.6370  -11.7830 C.2    37  PRO37       0.2598
     32  O         90.8000  -29.6290  -11.9350 O.2    37  PRO37      -0.2715
     33  CB        92.1120  -28.3800   -9.3210 C.3    37  PRO37       0.0310
     34  CG        93.2390  -27.6140   -8.5940 C.3    37  PRO37       0.0237
     35  CD        94.4140  -27.5660   -9.5450 C.3    37  PRO37       0.0939
     36  N         91.3320  -27.6020  -12.4980 N.am   38  ALA38      -0.1978
     37  CA        90.3070  -27.2870  -13.4860 C.3    38  ALA38       0.1597
     38  C         89.6700  -28.5560  -14.0420 C.2    38  ALA38       0.2287
     39  O         88.6850  -29.0400  -13.5120 O.2    38  ALA38      -0.2864
     40  CB        90.8950  -26.4490  -14.6110 C.3    38  ALA38       0.0319
     41  N         98.3510  -26.3000   -4.2220 N.3    51  GLU51      -0.1231
     42  CA        98.6000  -25.1870   -5.1310 C.3    51  GLU51       0.1699
     43  C         97.6170  -24.0500   -4.8760 C.2    51  GLU51       0.2592
     44  O         98.0490  -22.8890   -4.8250 O.2    51  GLU51      -0.2718
     45  CB        98.6770  -25.5940   -6.6270 C.3    51  GLU51       0.0402
     46  CG        97.3660  -25.5920   -7.4140 C.3    51  GLU51       0.1161
     47  CD        97.4950  -25.0210   -8.8310 C.2    51  GLU51       0.3649
     48  OE1       98.6270  -24.8970   -9.3790 O.co2  51  GLU51      -0.2457
     49  OE2       96.4310  -24.6820   -9.3900 O.co2  51  GLU51      -0.2457
     50  N         96.3230  -24.3690   -4.7010 N.am   52  VAL52      -0.1980
     51  CA        95.3400  -23.3130   -4.4240 C.3    52  VAL52       0.1595
     52  C         95.8150  -22.6220   -3.1730 C.2    52  VAL52       0.2287
     53  O         96.0910  -21.4170   -3.2050 O.2    52  VAL52      -0.2864
     54  CB        93.8230  -23.7370   -4.3170 C.3    52  VAL52       0.0276
     55  CG1       93.3930  -24.6230   -5.4540 C.3    52  VAL52       0.0022
     56  CG2       93.5060  -24.3780   -3.0150 C.3    52  VAL52       0.0022
     57  N         98.8190  -20.5300   -3.4610 N.3    55  ALA55      -0.1231
     58  CA        98.4590  -19.3300   -4.2320 C.3    55  ALA55       0.1694
     59  C         97.4280  -18.4730   -3.5360 C.2    55  ALA55       0.2592
     60  O         97.5580  -17.2280   -3.5250 O.2    55  ALA55      -0.2718
     61  CB        97.9460  -19.7150   -5.5630 C.3    55  ALA55       0.0304
     62  N         96.4180  -19.1390   -2.9640 N.am   56  HIS56      -0.1976
     63  CA        95.2120  -18.4760   -2.4640 C.3    56  HIS56       0.1656
     64  C         95.3840  -17.5770   -1.2530 C.2    56  HIS56       0.2291
     65  O         94.6190  -16.6280   -1.0780 O.2    56  HIS56      -0.2864
     66  CB        94.0980  -19.4860   -2.2290 C.3    56  HIS56       0.0771
     67  CG        93.0260  -19.4240   -3.2680 C.ar   56  HIS56       0.0820
     68  ND1       91.8120  -18.8210   -3.0360 N.ar   56  HIS56      -0.2267
     69  CD2       93.0040  -19.8280   -4.5610 C.ar   56  HIS56       0.1154
     70  CE1       91.0770  -18.8780   -4.1300 C.ar   56  HIS56       0.1986
     71  NE2       91.7770  -19.4830   -5.0710 N.ar   56  HIS56      -0.2212
     72  N         97.2290  -13.9460   -1.9780 N.3    59  LEU59      -0.1231
     73  CA        96.2060  -13.2820   -2.7740 C.3    59  LEU59       0.1693
     74  C         95.3820  -12.2460   -2.0050 C.2    59  LEU59       0.2591
     75  O         94.6730  -11.4560   -2.6150 O.2    59  LEU59      -0.2718
     76  CB        95.2910  -14.3610   -3.3580 C.3    59  LEU59       0.0284
     77  CG        94.5510  -14.2370   -4.6910 C.3    59  LEU59       0.0019
     78  CD1       94.0450  -15.6200   -5.0170 C.3    59  LEU59       0.0001
     79  CD2       93.3860  -13.2570   -4.6510 C.3    59  LEU59       0.0001
     80  N         95.4960  -12.2510   -0.6760 N.am   60  LEU60      -0.1980
     81  CA        94.7080  -11.3570    0.1810 C.3    60  LEU60       0.1596
     82  C         95.4970  -10.2370    0.8860 C.2    60  LEU60       0.2287
     83  O         94.8850   -9.2630    1.3640 O.2    60  LEU60      -0.2864
     84  CB        93.7880  -12.1560    1.1290 C.3    60  LEU60       0.0297
     85  CG        92.3570  -12.4800    0.6040 C.3    60  LEU60       0.0022
     86  CD1       92.2210  -12.7150   -0.9520 C.3    60  LEU60       0.0001
     87  CD2       91.7010  -13.6400    1.4050 C.3    60  LEU60       0.0001
     88  N         87.8610  -20.5500    6.2850 N.3    91  LEU91      -0.1245
     89  CA        87.8990  -20.8180    4.8710 C.3    91  LEU91       0.1561
     90  C         88.5760  -22.1570    4.8260 C.2    91  LEU91       0.2260
     91  O         88.6670  -22.8310    3.7970 O.2    91  LEU91      -0.2867
     92  CB        88.7910  -19.7750    4.2190 C.3    91  LEU91       0.0270
     93  CG        88.6040  -19.4300    2.7610 C.3    91  LEU91       0.0019
     94  CD1       87.2060  -18.9000    2.5080 C.3    91  LEU91       0.0001
     95  CD2       89.6310  -18.3740    2.4940 C.3    91  LEU91       0.0001
     96  N         84.9720  -25.4930    3.9220 N.3    95  LEU95      -0.1245
     97  CA        85.0480  -26.6750    3.0500 C.3    95  LEU95       0.1561
     98  C         85.5150  -27.9810    3.7550 C.2    95  LEU95       0.2260
     99  O         85.6640  -29.0280    3.1260 O.2    95  LEU95      -0.2867
    100  CB        85.8580  -26.3590    1.7760 C.3    95  LEU95       0.0270
    101  CG        85.1000  -25.7730    0.5740 C.3    95  LEU95       0.0019
    102  CD1       84.4270  -24.4450    0.8820 C.3    95  LEU95       0.0001
    103  CD2       86.0510  -25.6040   -0.6040 C.3    95  LEU95       0.0001
    104  N         93.0050  -32.5180    0.1610 N.3   135  PHE135     -0.1241
    105  CA        93.0780  -31.2930   -0.5900 C.3   135  PHE135      0.1605
    106  C         92.9970  -30.2310    0.4850 C.2   135  PHE135      0.2264
    107  O         93.7050  -29.2240    0.4170 O.2   135  PHE135     -0.2867
    108  CB        91.8760  -31.1600   -1.5350 C.3   135  PHE135      0.0534
    109  CG        91.9820  -30.0130   -2.5100 C.ar  135  PHE135     -0.0203
    110  CD1       92.9750  -30.0050   -3.4900 C.ar  135  PHE135     -0.0042
    111  CD2       91.0700  -28.9520   -2.4610 C.ar  135  PHE135     -0.0042
    112  CE1       93.0580  -28.9620   -4.3950 C.ar  135  PHE135     -0.0003
    113  CE2       91.1540  -27.8900   -3.3630 C.ar  135  PHE135     -0.0003
    114  CZ        92.1480  -27.8950   -4.3320 C.ar  135  PHE135     -0.0000
@<TRIPOS>BOND
     1     1     2    1
     2    20    18    1
     3     8    10   ar
     4     8     6   ar
     5     2     5    1
     6     2     3    1
     7     5     6    1
     8    18    17    1
     9    18    19    1
    10    10    11   ar
    11    17    14    1
    12    13     3   am
    13    13    14    1
    14     6     7   ar
    15     3     4    2
    16    16    15    2
    17    15    14    1
    18    11    12    1
    19    11     9   ar
    20     7     9   ar
    21    40    37    1
    22    38    39    2
    23    38    37    1
    24    37    36    1
    25    21    22    1
    26    28    26    1
    27    24    23    2
    28    26    27    1
    29    26    25    1
    30    36    31   am
    31    23    22    1
    32    23    29   am
    33    22    25    1
    34    32    31    2
    35    31    30    1
    36    29    30    1
    37    29    35    1
    38    30    33    1
    39    35    34    1
    40    49    47   ar
    41    48    47   ar
    42    33    34    1
    43    47    46    1
    44    46    45    1
    45    45    42    1
    46    61    58    1
    47    55    54    1
    48    42    43    1
    49    42    41    1
    50    71    69   ar
    51    71    70   ar
    52    78    77    1
    53    43    44    2
    54    43    50   am
    55    50    51    1
    56    77    79    1
    57    77    76    1
    58    69    67   ar
    59    51    54    1
    60    51    52    1
    61   112   114   ar
    62   112   110   ar
    63   114   113   ar
    64    54    56    1
    65    58    59    1
    66    58    57    1
    67    70    68   ar
    68    59    60    2
    69    59    62   am
    70   110   109   ar
    71   113   111   ar
    72    76    73    1
    73    67    68   ar
    74    67    66    1
    75    53    52    2
    76    62    63    1
    77    73    74    1
    78    73    72    1
    79    75    74    2
    80   109   111   ar
    81   109   108    1
    82    63    66    1
    83    63    64    1
    84    74    80   am
    85   108   105    1
    86    64    65    2
    87    86    85    1
    88    80    81    1
    89   103   101    1
    90   105   104    1
    91   105   106    1
    92    81    82    1
    93    81    84    1
    94   107   106    2
    95   101   102    1
    96   101   100    1
    97    85    84    1
    98    85    87    1
    99    82    83    2
   100   100    97    1
   101    95    93    1
   102    94    93    1
   103    93    92    1
   104    97    98    1
   105    97    96    1
   106    99    98    2
   107    91    90    2
   108    92    89    1
   109    90    89    1
   110    89    88    1
