@<TRIPOS>MOLECULE
tmp/2o01O00.pdb
 74 67 0 0 0
SMALL
GASTEIGER

@<TRIPOS>ATOM
      1  N          8.9170   21.1430  -28.2940 N.3    33  GLU33      -0.1231
      2  CA         9.8150   22.1010  -28.9250 C.3    33  GLU33       0.1699
      3  C          8.9670   23.0790  -29.7300 C.2    33  GLU33       0.2592
      4  O          8.8730   24.2620  -29.3740 O.2    33  GLU33      -0.2718
      5  CB        10.8270   21.3750  -29.8250 C.3    33  GLU33       0.0402
      6  CG        12.0280   22.2260  -30.2580 C.3    33  GLU33       0.1161
      7  CD        12.7480   21.6830  -31.4990 C.2    33  GLU33       0.3649
      8  OE1       13.0050   22.4790  -32.4400 O.co2  33  GLU33      -0.2457
      9  OE2       13.0550   20.4650  -31.5380 O.co2  33  GLU33      -0.2457
     10  N          8.3320   22.5680  -30.7910 N.am   34  LEU34      -0.1980
     11  CA         7.3920   23.3440  -31.5950 C.3    34  LEU34       0.1596
     12  C          6.5310   24.2410  -30.6920 C.2    34  LEU34       0.2287
     13  O          6.6610   25.4680  -30.7180 O.2    34  LEU34      -0.2864
     14  CB         6.5410   22.4090  -32.4850 C.3    34  LEU34       0.0297
     15  CG         5.0950   22.7200  -32.9360 C.3    34  LEU34       0.0022
     16  CD1        4.9110   22.5790  -34.4550 C.3    34  LEU34       0.0001
     17  CD2        4.0690   21.8620  -32.2050 C.3    34  LEU34       0.0001
     18  N          8.3490   26.8940  -28.7150 N.3    37  SER37      -0.1217
     19  CA         9.1120   27.8340  -29.5280 C.3    37  SER37       0.1889
     20  C          8.2920   28.9360  -30.1870 C.2    37  SER37       0.2288
     21  O          8.7910   30.0490  -30.3740 O.2    37  SER37      -0.2866
     22  CB         9.8460   27.0670  -30.6200 C.3    37  SER37       0.2089
     23  OG         8.9140   26.3370  -31.4030 O.3    37  SER37      -0.2183
     24  N          4.1090   30.1080  -41.6640 N.3   128  GLU128     -0.1245
     25  CA         5.2070   31.0140  -41.3080 C.3   128  GLU128      0.1567
     26  C          4.7270   32.4420  -40.8850 C.2   128  GLU128      0.2260
     27  O          5.5200   33.3910  -40.8030 O.2   128  GLU128     -0.2867
     28  CB         6.2640   31.0740  -42.4320 C.3   128  GLU128      0.0388
     29  CG         7.0530   29.7680  -42.7030 C.3   128  GLU128      0.1160
     30  CD         8.1200   29.9260  -43.8220 C.2   128  GLU128      0.3649
     31  OE1        8.7220   31.0240  -43.9570 O.co2 128  GLU128     -0.2457
     32  OE2        8.3670   28.9440  -44.5650 O.co2 128  GLU128     -0.2457
     33  N          5.9640   31.0940  -37.9840 N.3   131  ASN131     -0.1240
     34  CA         7.3990   30.8970  -38.1000 C.3   131  ASN131      0.1653
     35  C          8.2190   32.1120  -38.5050 C.2   131  ASN131      0.2266
     36  O          9.3060   32.3180  -37.9660 O.2   131  ASN131     -0.2867
     37  CB         7.7300   29.7440  -39.0290 C.3   131  ASN131      0.1155
     38  CG         9.1960   29.5100  -39.1000 C.2   131  ASN131      0.2627
     39  OD1        9.7300   28.6870  -38.3650 O.2   131  ASN131     -0.2716
     40  ND2        9.8820   30.3060  -39.9120 N.am  131  ASN131     -0.0877
     41  N          9.1970   34.1340  -35.9040 N.3   134  LEU134     -0.1231
     42  CA        10.4550   33.6810  -35.3080 C.3   134  LEU134      0.1693
     43  C         11.6370   33.6190  -36.2770 C.2   134  LEU134      0.2591
     44  O         12.7540   33.3050  -35.8780 O.2   134  LEU134     -0.2718
     45  CB        10.2930   32.4340  -34.4420 C.3   134  LEU134      0.0284
     46  CG        10.3620   32.9560  -33.0090 C.3   134  LEU134      0.0019
     47  CD1        9.0500   32.7210  -32.2500 C.3   134  LEU134      0.0001
     48  CD2       11.5840   32.4150  -32.2940 C.3   134  LEU134      0.0001
     49  N         11.3860   33.9600  -37.5350 N.am  135  ALA135     -0.1980
     50  CA        12.4550   34.4360  -38.3760 C.3   135  ALA135      0.1597
     51  C         12.8550   35.8350  -37.8720 C.2   135  ALA135      0.2287
     52  O         14.0490   36.1440  -37.7680 O.2   135  ALA135     -0.2864
     53  CB        12.0180   34.4830  -39.8270 C.3   135  ALA135      0.0319
     54  N         12.2400   37.3580  -34.9150 N.3   137  LEU137     -0.1231
     55  CA        12.8600   37.4200  -33.5920 C.3   137  LEU137      0.1693
     56  C         14.2580   36.7830  -33.6480 C.2   137  LEU137      0.2591
     57  O         14.9410   36.6270  -32.6400 O.2   137  LEU137     -0.2718
     58  CB        11.9590   36.8330  -32.5030 C.3   137  LEU137      0.0284
     59  CG        11.0310   37.8630  -31.8510 C.3   137  LEU137      0.0019
     60  CD1        9.7850   38.1190  -32.6860 C.3   137  LEU137      0.0001
     61  CD2       10.6480   37.4500  -30.4550 C.3   137  LEU137      0.0001
     62  N         14.6750   36.4300  -34.8600 N.am  138  ALA138     -0.1980
     63  CA        16.0860   36.2440  -35.1370 C.3   138  ALA138      0.1597
     64  C         16.7560   37.6260  -35.1830 C.2   138  ALA138      0.2287
     65  O         17.9530   37.7530  -34.9190 O.2   138  ALA138     -0.2864
     66  CB        16.2910   35.4930  -36.4420 C.3   138  ALA138      0.0319
     67  N         15.8070   39.8880  -33.0250 N.3   140  MET140     -0.1245
     68  CA        16.0330   39.6640  -31.5990 C.3   140  MET140      0.1570
     69  C         17.3500   38.8960  -31.3930 C.2   140  MET140      0.2261
     70  O         18.3100   39.4280  -30.8460 O.2   140  MET140     -0.2867
     71  CB        14.8280   38.9080  -30.9930 C.3   140  MET140      0.0387
     72  CG        15.1590   37.6730  -30.1180 C.3   140  MET140      0.0595
     73  SD        14.1120   36.2160  -30.4390 S.3   140  MET140     -0.1393
     74  CE        15.0670   34.8990  -29.6750 C.3   140  MET140      0.0692
@<TRIPOS>BOND
     1    32    30   ar
     2    31    30   ar
     3    30    29    1
     4    29    28    1
     5    28    25    1
     6    24    25    1
     7    25    26    1
     8    26    27    2
     9    40    38   am
    10    53    50    1
    11    38    37    1
    12    38    39    2
    13    37    34    1
    14    35    34    1
    15    35    36    2
    16    50    51    1
    17    50    49    1
    18    34    33    1
    19    51    52    2
    20    49    43   am
    21    66    63    1
    22    43    44    2
    23    43    42    1
    24    41    42    1
    25    42    45    1
    26    64    63    1
    27    64    65    2
    28    63    62    1
    29    54    55    1
    30    62    56   am
    31    16    15    1
    32    45    46    1
    33    56    55    1
    34    56    57    2
    35    55    58    1
    36    67    68    1
    37    46    48    1
    38    46    47    1
    39    15    14    1
    40    15    17    1
    41    60    59    1
    42    58    59    1
    43    14    11    1
    44     8     7   ar
    45    59    61    1
    46    68    69    1
    47    68    71    1
    48    11    10    1
    49    11    12    1
    50     9     7   ar
    51     7     6    1
    52    23    22    1
    53    69    70    2
    54    71    72    1
    55    10     3   am
    56    13    12    2
    57    22    19    1
    58    73    72    1
    59    73    74    1
    60    21    20    2
    61     6     5    1
    62    20    19    1
    63     5     2    1
    64     3     4    2
    65     3     2    1
    66    19    18    1
    67     2     1    1
