@<TRIPOS>MOLECULE
tmp/2o01A11.pdb
 96 92 0 0 0
SMALL
GASTEIGER

@<TRIPOS>ATOM
      1  N         79.4190  -15.9020  -36.3470 N.3   308  PHE308     -0.1227
      2  CA        78.5570  -15.7690  -35.1680 C.3   308  PHE308      0.1736
      3  C         77.9620  -14.3540  -35.2570 C.2   308  PHE308      0.2596
      4  O         78.4620  -13.5320  -36.0330 O.2   308  PHE308     -0.2718
      5  CB        79.2870  -16.1050  -33.8370 C.3   308  PHE308      0.0547
      6  CG        80.2230  -15.0240  -33.3060 C.ar  308  PHE308     -0.0202
      7  CD1       81.5970  -15.2390  -33.2600 C.ar  308  PHE308     -0.0042
      8  CD2       79.7250  -13.8160  -32.7870 C.ar  308  PHE308     -0.0042
      9  CE1       82.4670  -14.2630  -32.7400 C.ar  308  PHE308     -0.0003
     10  CE2       80.5920  -12.8260  -32.2720 C.ar  308  PHE308     -0.0003
     11  CZ        81.9590  -13.0610  -32.2470 C.ar  308  PHE308     -0.0000
     12  N         76.9020  -14.0670  -34.5060 N.am  309  THR309     -0.1953
     13  CA        75.9940  -12.9640  -34.8800 C.3   309  THR309      0.1897
     14  C         75.3760  -13.2330  -36.2810 C.2   309  THR309      0.2313
     15  O         74.9260  -12.3120  -36.9850 O.2   309  THR309     -0.2863
     16  CB        76.6400  -11.5210  -34.7790 C.3   309  THR309      0.1794
     17  OG1       78.0470  -11.5680  -35.0580 O.3   309  THR309     -0.2208
     18  CG2       76.4180  -10.9190  -33.3850 C.3   309  THR309      0.0378
     19  N         68.6490  -12.5550  -36.2210 N.3   401  LEU401     -0.1245
     20  CA        69.4380  -12.1970  -35.0760 C.3   401  LEU401      0.1561
     21  C         68.5470  -12.4220  -33.8480 C.2   401  LEU401      0.2260
     22  O         68.9850  -13.0910  -32.8970 O.2   401  LEU401     -0.2867
     23  CB        70.0470  -10.8010  -35.1620 C.3   401  LEU401      0.0270
     24  CG        71.5030  -10.7370  -34.6320 C.3   401  LEU401      0.0019
     25  CD1       71.6830  -11.3680  -33.2740 C.3   401  LEU401      0.0001
     26  CD2       72.4920  -11.3930  -35.5450 C.3   401  LEU401      0.0001
     27  N         68.7530  -15.6730  -32.0410 N.3   404  ARG404     -0.1231
     28  CA        70.0750  -15.8640  -31.4900 C.3   404  ARG404      0.1694
     29  C         70.1070  -15.4960  -29.9930 C.2   404  ARG404      0.2591
     30  O         70.8530  -16.1110  -29.2460 O.2   404  ARG404     -0.2718
     31  CB        71.1630  -15.1860  -32.3380 C.3   404  ARG404      0.0321
     32  CG        72.1260  -16.1720  -33.0400 C.3   404  ARG404      0.0489
     33  CD        73.3310  -16.5910  -32.1580 C.3   404  ARG404      0.2205
     34  NE        73.0010  -16.7580  -30.7250 N.pl3 404  ARG404     -0.0865
     35  CZ        73.2140  -17.8640  -30.0060 C.cat 404  ARG404      0.5346
     36  NH1       73.7840  -18.9210  -30.5670 N.pl3 404  ARG404      0.1354
     37  NH2       72.8610  -17.9290  -28.7280 N.pl3 404  ARG404      0.1354
     38  N         69.2690  -14.5370  -29.5670 N.am  405  VAL405     -0.1980
     39  CA        69.0640  -14.2300  -28.1260 C.3   405  VAL405      0.1595
     40  C         68.2240  -15.2770  -27.4060 C.2   405  VAL405      0.2287
     41  O         68.7020  -15.8890  -26.4360 O.2   405  VAL405     -0.2864
     42  CB        68.5020  -12.7670  -27.8130 C.3   405  VAL405      0.0276
     43  CG1       67.2730  -12.7910  -26.8820 C.3   405  VAL405      0.0022
     44  CG2       69.5610  -11.8760  -27.1740 C.3   405  VAL405      0.0022
     45  N         67.4680  -18.1840  -27.7370 N.3   407  ARG407     -0.1231
     46  CA        68.2920  -19.3080  -27.3870 C.3   407  ARG407      0.1694
     47  C         69.1350  -18.7830  -26.2200 C.2   407  ARG407      0.2592
     48  O         68.9120  -19.1900  -25.0710 O.2   407  ARG407     -0.2718
     49  CB        69.1790  -19.8030  -28.5570 C.3   407  ARG407      0.0321
     50  CG        68.5670  -19.7070  -29.9430 C.3   407  ARG407      0.0489
     51  CD        69.0080  -20.8380  -30.8760 C.3   407  ARG407      0.2205
     52  NE        70.3890  -20.7520  -31.3720 N.pl3 407  ARG407     -0.0865
     53  CZ        71.4070  -21.4790  -30.8990 C.cat 407  ARG407      0.5346
     54  NH1       71.1970  -22.3260  -29.8970 N.pl3 407  ARG407      0.1354
     55  NH2       72.6350  -21.3610  -31.4180 N.pl3 407  ARG407      0.1354
     56  N         70.0440  -17.8420  -26.5050 N.am  408  HIS408     -0.1976
     57  CA        71.0680  -17.4680  -25.5530 C.3   408  HIS408      0.1656
     58  C         70.6610  -16.6530  -24.3180 C.2   408  HIS408      0.2291
     59  O         71.5310  -16.0870  -23.6630 O.2   408  HIS408     -0.2864
     60  CB        72.3350  -16.9510  -26.2370 C.3   408  HIS408      0.0771
     61  CG        72.2310  -15.5790  -26.8550 C.ar  408  HIS408      0.0820
     62  ND1       71.6030  -14.5150  -26.2430 N.ar  408  HIS408     -0.2267
     63  CD2       72.7780  -15.0830  -27.9960 C.ar  408  HIS408      0.1154
     64  CE1       71.7390  -13.4370  -26.9980 C.ar  408  HIS408      0.1986
     65  NE2       72.4340  -13.7600  -28.0730 N.ar  408  HIS408     -0.2212
     66  N         71.7580  -17.3230  -19.9690 N.3   411  ALA411     -0.1231
     67  CA        73.1640  -17.0370  -20.0240 C.3   411  ALA411      0.1694
     68  C         73.3040  -15.9390  -21.0460 C.2   411  ALA411      0.2591
     69  O         74.1520  -16.0140  -21.9220 O.2   411  ALA411     -0.2718
     70  CB        73.9740  -18.2530  -20.4190 C.3   411  ALA411      0.0304
     71  N         72.3880  -14.9730  -20.9770 N.am  412  ILE412     -0.1980
     72  CA        72.7190  -13.5630  -21.2130 C.3   412  ILE412      0.1595
     73  C         72.2410  -12.8090  -19.9840 C.2   412  ILE412      0.2287
     74  O         73.0460  -12.1610  -19.3040 O.2   412  ILE412     -0.2864
     75  CB        72.2000  -12.9050  -22.5550 C.3   412  ILE412      0.0276
     76  CG1       70.7160  -13.1680  -22.8060 C.3   412  ILE412      0.0022
     77  CG2       73.0820  -13.2950  -23.7340 C.3   412  ILE412      0.0022
     78  CD1       69.8180  -12.1470  -22.1740 C.3   412  ILE412      0.0001
     79  N         74.4870  -13.1760  -16.5620 N.3   415  HIS415     -0.1241
     80  CA        75.7310  -12.4530  -16.2750 C.3   415  HIS415      0.1621
     81  C         75.5470  -10.9530  -16.0530 C.2   415  HIS415      0.2264
     82  O         76.5360  -10.2090  -15.9460 O.2   415  HIS415     -0.2867
     83  CB        76.7830  -12.6800  -17.3450 C.3   415  HIS415      0.0745
     84  CG        76.4650  -13.7960  -18.2740 C.ar  415  HIS415      0.0817
     85  ND1       75.6130  -13.6380  -19.3420 N.ar  415  HIS415     -0.2268
     86  CD2       76.9000  -15.0760  -18.3170 C.ar  415  HIS415      0.1154
     87  CE1       75.5400  -14.7710  -20.0100 C.ar  415  HIS415      0.1986
     88  NE2       76.3050  -15.6620  -19.4070 N.ar  415  HIS415     -0.2212
     89  N         64.8430   -7.1900  -18.9560 N.3   527  LEU527     -0.1245
     90  CA        65.4530   -8.3200  -19.6920 C.3   527  LEU527      0.1561
     91  C         65.1180   -9.7540  -19.2110 C.2   527  LEU527      0.2260
     92  O         64.6130  -10.5510  -20.0140 O.2   527  LEU527     -0.2867
     93  CB        66.9550   -8.0990  -20.0000 C.3   527  LEU527      0.0270
     94  CG        67.3220   -7.9160  -21.5150 C.3   527  LEU527      0.0019
     95  CD1       66.8940   -6.5870  -22.2400 C.3   527  LEU527      0.0001
     96  CD2       68.7900   -8.2750  -21.8510 C.3   527  LEU527      0.0001
@<TRIPOS>BOND
     1    15    14    2
     2     1     2    1
     3    14    13    1
     4    19    20    1
     5     4     3    2
     6    26    24    1
     7     3     2    1
     8     3    12   am
     9     2     5    1
    10    23    20    1
    11    23    24    1
    12    20    21    1
    13    17    16    1
    14    13    16    1
    15    13    12    1
    16    16    18    1
    17    24    25    1
    18    21    22    2
    19     5     6    1
    20     6     7   ar
    21     6     8   ar
    22     7     9   ar
    23    32    31    1
    24    32    33    1
    25     8    10   ar
    26     9    11   ar
    27    31    28    1
    28    10    11   ar
    29    33    34    1
    30    27    28    1
    31    28    29    1
    32    55    53    1
    33    52    53    2
    34    52    51    1
    35    53    54    1
    36    51    50    1
    37    34    35    2
    38    36    35    1
    39    35    37    1
    40    29    38   am
    41    29    30    2
    42    50    49    1
    43    38    39    1
    44    49    46    1
    45    39    42    1
    46    39    40    1
    47    65    63   ar
    48    65    64   ar
    49    63    61   ar
    50    42    44    1
    51    42    43    1
    52    45    46    1
    53    40    41    2
    54    46    47    1
    55    64    62   ar
    56    61    62   ar
    57    61    60    1
    58    56    47   am
    59    56    57    1
    60    60    57    1
    61    47    48    2
    62    57    58    1
    63    58    59    2
    64    77    75    1
    65    76    75    1
    66    76    78    1
    67    75    72    1
    68    95    94    1
    69    69    68    2
    70    96    94    1
    71    94    93    1
    72    72    71    1
    73    72    73    1
    74    68    71   am
    75    68    67    1
    76    70    67    1
    77    67    66    1
    78    92    91    2
    79    87    88   ar
    80    87    85   ar
    81    93    90    1
    82    73    74    2
    83    90    91    1
    84    90    89    1
    85    88    86   ar
    86    85    84   ar
    87    86    84   ar
    88    84    83    1
    89    83    80    1
    90    79    80    1
    91    80    81    1
    92    81    82    2
