@<TRIPOS>MOLECULE
tmp/2o01B09.pdb
 107 104 0 0 0
SMALL
GASTEIGER

@<TRIPOS>ATOM
      1  N         45.9580   -7.1000   64.9320 N.3   224  LEU224     -0.1245
      2  CA        45.7150   -7.9770   63.7850 C.3   224  LEU224      0.1561
      3  C         44.6970   -9.0300   64.1870 C.2   224  LEU224      0.2260
      4  O         43.5940   -9.0650   63.6440 O.2   224  LEU224     -0.2867
      5  CB        47.0230   -8.6390   63.3080 C.3   224  LEU224      0.0270
      6  CG        47.1200   -9.5480   62.0680 C.3   224  LEU224      0.0019
      7  CD1       47.0190  -11.0120   62.4450 C.3   224  LEU224      0.0001
      8  CD2       46.1020   -9.1880   60.9890 C.3   224  LEU224      0.0001
      9  N         42.4990   -2.2760   64.8820 N.3   229  TRP229     -0.1227
     10  CA        43.6150   -2.0780   63.9450 C.3   229  TRP229      0.1737
     11  C         44.2650   -0.6930   63.8900 C.2   229  TRP229      0.2595
     12  O         45.4920   -0.5940   63.9620 O.2   229  TRP229     -0.2718
     13  CB        43.2230   -2.5790   62.5550 C.3   229  TRP229      0.0564
     14  CG        43.3190   -4.0530   62.5300 C.ar  229  TRP229      0.0003
     15  CD1       44.3700   -4.7940   62.9850 C.ar  229  TRP229      0.0946
     16  CD2       42.3400   -4.9950   62.0580 C.ar  229  TRP229      0.0152
     17  NE1       44.1160   -6.1300   62.8170 N.ar  229  TRP229     -0.2442
     18  CE2       42.8800   -6.2860   62.2470 C.ar  229  TRP229      0.0810
     19  CE3       41.0700   -4.8780   61.4820 C.ar  229  TRP229      0.0012
     20  CZ2       42.1910   -7.4530   61.8880 C.ar  229  TRP229      0.0191
     21  CZ3       40.3860   -6.0460   61.1280 C.ar  229  TRP229      0.0001
     22  CH2       40.9520   -7.3120   61.3400 C.ar  229  TRP229      0.0015
     23  N         43.4330    0.3450   63.7920 N.am  230  ASN230     -0.1974
     24  CA        43.8330    1.7520   63.5780 C.3   230  ASN230      0.1688
     25  C         45.0200    2.3050   64.3970 C.2   230  ASN230      0.2292
     26  O         45.4660    3.4340   64.1810 O.2   230  ASN230     -0.2864
     27  CB        42.5950    2.6530   63.7000 C.3   230  ASN230      0.1181
     28  CG        41.3900    2.1000   62.9240 C.2   230  ASN230      0.2629
     29  OD1       41.4300    1.9770   61.6960 O.2   230  ASN230     -0.2716
     30  ND2       40.3150    1.7650   63.6460 N.am  230  ASN230     -0.0877
     31  N         47.3650    2.6070   61.0370 N.3   233  ALA233     -0.1245
     32  CA        47.1400    3.7650   60.1980 C.3   233  ALA233      0.1562
     33  C         47.6340    4.9530   60.9990 C.2   233  ALA233      0.2260
     34  O         47.9130    6.0220   60.4500 O.2   233  ALA233     -0.2867
     35  CB        45.6640    3.8830   59.8790 C.3   233  ALA233      0.0290
     36  N         51.0890   -0.8190   57.8040 N.3   254  LEU254     -0.1245
     37  CA        49.8670   -0.8230   56.9860 C.3   254  LEU254      0.1561
     38  C         49.0480    0.5000   56.9260 C.2   254  LEU254      0.2260
     39  O         48.0190    0.6410   57.5800 O.2   254  LEU254     -0.2867
     40  CB        48.9900   -2.0480   57.3210 C.3   254  LEU254      0.0270
     41  CG        48.5560   -2.3970   58.7500 C.3   254  LEU254      0.0019
     42  CD1       47.0930   -2.0040   58.9650 C.3   254  LEU254      0.0001
     43  CD2       48.7210   -3.8780   59.0100 C.3   254  LEU254      0.0001
     44  N         46.8860    3.5580   54.5360 N.3   256  ILE256     -0.1245
     45  CA        45.9870    3.6980   53.3900 C.3   256  ILE256      0.1561
     46  C         45.0970    5.0020   53.3790 C.2   256  ILE256      0.2260
     47  O         43.8430    4.9550   53.3030 O.2   256  ILE256     -0.2867
     48  CB        45.2440    2.3540   53.0870 C.3   256  ILE256      0.0252
     49  CG1       44.3770    2.4570   51.8190 C.3   256  ILE256      0.0019
     50  CG2       44.5030    1.8420   54.3280 C.3   256  ILE256      0.0019
     51  CD1       45.1620    2.7790   50.5310 C.3   256  ILE256      0.0001
     52  N         48.8660   -2.3620   52.5860 N.3   274  HIS274     -0.1241
     53  CA        47.4810   -2.6970   52.8910 C.3   274  HIS274      0.1621
     54  C         46.7940   -3.1470   51.5960 C.2   274  HIS274      0.2264
     55  O         45.9930   -4.0690   51.6330 O.2   274  HIS274     -0.2867
     56  CB        46.8130   -1.4630   53.5100 C.3   274  HIS274      0.0745
     57  CG        45.3370   -1.5800   53.7470 C.ar  274  HIS274      0.0817
     58  ND1       44.4130   -1.6100   52.7240 N.ar  274  HIS274     -0.2268
     59  CD2       44.6210   -1.5800   54.8980 C.ar  274  HIS274      0.1154
     60  CE1       43.1960   -1.6670   53.2340 C.ar  274  HIS274      0.1986
     61  NE2       43.2940   -1.6500   54.5520 N.ar  274  HIS274     -0.2212
     62  N         47.2050   -6.9850   50.5290 N.3   277  LEU277     -0.1231
     63  CA        46.8010   -7.6380   51.7760 C.3   277  LEU277      0.1693
     64  C         45.3120   -7.4330   51.8920 C.2   277  LEU277      0.2591
     65  O         44.7430   -7.5010   52.9780 O.2   277  LEU277     -0.2718
     66  CB        47.5060   -7.0960   53.0110 C.3   277  LEU277      0.0284
     67  CG        47.7250   -8.1690   54.0730 C.3   277  LEU277      0.0019
     68  CD1       49.0120   -8.9040   53.7980 C.3   277  LEU277      0.0001
     69  CD2       47.7770   -7.5630   55.4630 C.3   277  LEU277      0.0001
     70  N         44.6890   -7.1660   50.7490 N.am  278  ALA278     -0.1980
     71  CA        43.2460   -7.0080   50.6700 C.3   278  ALA278      0.1597
     72  C         42.7420   -7.7600   49.4440 C.2   278  ALA278      0.2287
     73  O         41.8450   -8.6190   49.5510 O.2   278  ALA278     -0.2864
     74  CB        42.8540   -5.5370   50.6110 C.3   278  ALA278      0.0319
     75  N         41.3850  -11.7410   49.6740 N.3   281  PHE281     -0.1241
     76  CA        40.0670  -12.1700   50.0670 C.3   281  PHE281      0.1605
     77  C         39.0990  -12.0580   48.9070 C.2   281  PHE281      0.2264
     78  O         38.1550  -12.8320   48.7870 O.2   281  PHE281     -0.2867
     79  CB        39.6350  -11.2990   51.2290 C.3   281  PHE281      0.0534
     80  CG        40.7690  -10.9520   52.1680 C.ar  281  PHE281     -0.0203
     81  CD1       41.1690   -9.6310   52.3470 C.ar  281  PHE281     -0.0042
     82  CD2       41.4660  -11.9620   52.8610 C.ar  281  PHE281     -0.0042
     83  CE1       42.2230   -9.3040   53.2130 C.ar  281  PHE281     -0.0003
     84  CE2       42.5350  -11.6440   53.7330 C.ar  281  PHE281     -0.0003
     85  CZ        42.9060  -10.3070   53.9050 C.ar  281  PHE281     -0.0000
     86  N         37.9980    9.4680   53.9210 N.3   491  ILE491     -0.1231
     87  CA        38.3540    8.2050   53.3520 C.3   491  ILE491      0.1692
     88  C         38.6110    8.4280   51.8720 C.2   491  ILE491      0.2592
     89  O         37.7540    8.9450   51.1450 O.2   491  ILE491     -0.2718
     90  CB        37.2310    7.1630   53.5440 C.3   491  ILE491      0.0266
     91  CG1       35.8350    7.8450   53.6920 C.3   491  ILE491      0.0019
     92  CG2       37.6060    6.1540   54.6670 C.3   491  ILE491      0.0020
     93  CD1       35.5590    8.7230   54.9720 C.3   491  ILE491      0.0001
     94  N         39.8250    8.0580   51.4620 N.am  492  TRP492     -0.1976
     95  CA        40.3040    8.0740   50.0750 C.3   492  TRP492      0.1640
     96  C         40.3720    9.4740   49.4590 C.2   492  TRP492      0.2290
     97  O         41.0720    9.6630   48.4570 O.2   492  TRP492     -0.2864
     98  CB        39.4940    7.1170   49.1660 C.3   492  TRP492      0.0576
     99  CG        38.4810    6.2540   49.8940 C.ar  492  TRP492      0.0006
    100  CD1       37.1190    6.3210   49.7910 C.ar  492  TRP492      0.0946
    101  CD2       38.7590    5.2210   50.8440 C.ar  492  TRP492      0.0152
    102  NE1       36.5380    5.3900   50.6050 N.ar  492  TRP492     -0.2442
    103  CE2       37.5190    4.7030   51.2680 C.ar  492  TRP492      0.0810
    104  CE3       39.9390    4.6820   51.3790 C.ar  492  TRP492      0.0012
    105  CZ2       37.4220    3.6750   52.2080 C.ar  492  TRP492      0.0191
    106  CZ3       39.8440    3.6570   52.3070 C.ar  492  TRP492      0.0001
    107  CH2       38.5920    3.1660   52.7120 C.ar  492  TRP492      0.0015
@<TRIPOS>BOND
     1    97    96    2
     2    78    77    2
     3    77    76    1
     4    98    99    1
     5    98    95    1
     6    72    73    2
     7    72    71    1
     8    96    95    1
     9    75    76    1
    10   100    99   ar
    11   100   102   ar
    12    99   101   ar
    13    76    79    1
    14    95    94    1
    15    62    63    1
    16    51    49    1
    17   102   103   ar
    18    74    71    1
    19    71    70    1
    20    70    64   am
    21   101   103   ar
    22   101   104   ar
    23    89    88    2
    24    79    80    1
    25   103   105   ar
    26   104   106   ar
    27    94    88   am
    28    54    55    2
    29    54    53    1
    30    63    64    1
    31    63    66    1
    32    49    48    1
    33    88    87    1
    34    64    65    2
    35    80    81   ar
    36    80    82   ar
    37   105   107   ar
    38   106   107   ar
    39    81    83   ar
    40    52    53    1
    41    58    60   ar
    42    58    57   ar
    43    82    84   ar
    44    53    56    1
    45    66    67    1
    46    48    45    1
    47    48    50    1
    48    83    85   ar
    49    60    61   ar
    50    47    46    2
    51    87    90    1
    52    87    86    1
    53    46    45    1
    54    45    44    1
    55    56    57    1
    56    90    91    1
    57    90    92    1
    58    91    93    1
    59    84    85   ar
    60    57    59   ar
    61    68    67    1
    62    67    69    1
    63    61    59   ar
    64    38    37    1
    65    38    39    2
    66    37    40    1
    67    37    36    1
    68    40    41    1
    69    41    42    1
    70    41    43    1
    71    35    32    1
    72    32    33    1
    73    32    31    1
    74    34    33    2
    75     8     6    1
    76    21    22   ar
    77    21    19   ar
    78    22    20   ar
    79    19    16   ar
    80    29    28    2
    81    20    18   ar
    82    16    18   ar
    83    16    14   ar
    84     6     7    1
    85     6     5    1
    86    18    17   ar
    87    14    13    1
    88    14    15   ar
    89    13    10    1
    90    17    15   ar
    91    28    30   am
    92    28    27    1
    93     5     2    1
    94    24    27    1
    95    24    23    1
    96    24    25    1
    97     4     3    2
    98     2     3    1
    99     2     1    1
   100    23    11   am
   101    11    10    1
   102    11    12    2
   103    10     9    1
   104    26    25    2
