@<TRIPOS>MOLECULE
tmp/2o01B44.pdb
 180 181 0 0 0
SMALL
GASTEIGER

@<TRIPOS>ATOM
      1  N         49.3750    0.4150   13.0890 N.3   584  ASN584     -0.1240
      2  CA        48.7650    1.7050   12.7050 C.3   584  ASN584      0.1653
      3  C         48.0490    2.3370   13.9130 C.2   584  ASN584      0.2266
      4  O         48.3040    3.4790   14.3040 O.2   584  ASN584     -0.2867
      5  CB        47.7680    1.4580   11.5510 C.3   584  ASN584      0.1155
      6  CG        47.0520    2.7240   11.0690 C.2   584  ASN584      0.2627
      7  OD1       47.6700    3.7760   10.9020 O.2   584  ASN584     -0.2716
      8  ND2       45.7520    2.5970   10.7760 N.am  584  ASN584     -0.0877
      9  N         50.3520    2.9290   15.6880 N.3   587  GLY587     -0.1210
     10  CA        50.9070    3.8960   14.7670 C.3   587  GLY587      0.1956
     11  C         50.6040    5.1970   15.4440 C.2   587  GLY587      0.2611
     12  O         51.4700    6.0340   15.6430 O.2   587  GLY587     -0.2717
     13  N         49.3700    5.3380   15.8940 N.am  588  TRP588     -0.1976
     14  CA        49.0160    6.6370   16.3970 C.3   588  TRP588      0.1640
     15  C         49.2920    6.8820   17.8770 C.2   588  TRP588      0.2290
     16  O         50.2370    7.5950   18.2030 O.2   588  TRP588     -0.2864
     17  CB        47.6400    7.1260   15.8760 C.3   588  TRP588      0.0576
     18  CG        47.6910    7.3620   14.3660 C.ar  588  TRP588      0.0006
     19  CD1       48.7740    7.7590   13.6440 C.ar  588  TRP588      0.0946
     20  CD2       46.6240    7.1890   13.4260 C.ar  588  TRP588      0.0152
     21  NE1       48.4560    7.8320   12.3190 N.ar  588  TRP588     -0.2442
     22  CE2       47.1380    7.4980   12.1570 C.ar  588  TRP588      0.0810
     23  CE3       45.2790    6.8040   13.5340 C.ar  588  TRP588      0.0012
     24  CZ2       46.3580    7.4340   11.0010 C.ar  588  TRP588      0.0191
     25  CZ3       44.4940    6.7580   12.3800 C.ar  588  TRP588      0.0001
     26  CH2       45.0370    7.0660   11.1380 C.ar  588  TRP588      0.0015
     27  N         52.2430    8.8510   19.2120 N.3   591  PHE591     -0.1241
     28  CA        52.4370   10.2480   18.8210 C.3   591  PHE591      0.1605
     29  C         51.9370   11.1220   19.9430 C.2   591  PHE591      0.2264
     30  O         52.7460   11.6550   20.6990 O.2   591  PHE591     -0.2867
     31  CB        51.6860   10.5820   17.5490 C.3   591  PHE591      0.0534
     32  CG        52.0600    9.7340   16.4010 C.ar  591  PHE591     -0.0203
     33  CD1       53.4060    9.4740   16.1220 C.ar  591  PHE591     -0.0042
     34  CD2       51.0770    9.2020   15.5850 C.ar  591  PHE591     -0.0042
     35  CE1       53.7760    8.6900   15.0530 C.ar  591  PHE591     -0.0003
     36  CE2       51.4070    8.4310   14.5130 C.ar  591  PHE591     -0.0003
     37  CZ        52.7710    8.1660   14.2330 C.ar  591  PHE591     -0.0000
     38  N         56.8070   15.9360   14.6270 N.3   623  LEU623     -0.1231
     39  CA        57.7650   15.1030   13.9030 C.3   623  LEU623      0.1693
     40  C         59.0460   15.8360   13.5150 C.2   623  LEU623      0.2592
     41  O         60.1280   15.4210   13.9340 O.2   623  LEU623     -0.2718
     42  CB        57.1160   14.3680   12.6990 C.3   623  LEU623      0.0284
     43  CG        56.5750   12.8960   12.6910 C.3   623  LEU623      0.0019
     44  CD1       57.6820   11.8470   12.7520 C.3   623  LEU623      0.0001
     45  CD2       55.4930   12.5950   13.7400 C.3   623  LEU623      0.0001
     46  N         58.9390   16.9230   12.7570 N.am  624  TRP624     -0.1976
     47  CA        60.1420   17.6180   12.2460 C.3   624  TRP624      0.1640
     48  C         61.1250   18.1530   13.2710 C.2   624  TRP624      0.2290
     49  O         62.3240   17.9930   13.0860 O.2   624  TRP624     -0.2864
     50  CB        59.7770   18.7700   11.3050 C.3   624  TRP624      0.0576
     51  CG        60.9510   19.6700   10.9560 C.ar  624  TRP624      0.0006
     52  CD1       61.9080   19.4230   10.0250 C.ar  624  TRP624      0.0946
     53  CD2       61.2680   20.9520   11.5260 C.ar  624  TRP624      0.0152
     54  NE1       62.7930   20.4720    9.9710 N.ar  624  TRP624     -0.2442
     55  CE2       62.4250   21.4210   10.8830 C.ar  624  TRP624      0.0810
     56  CE3       60.6840   21.7450   12.5170 C.ar  624  TRP624      0.0012
     57  CZ2       63.0230   22.6370   11.2000 C.ar  624  TRP624      0.0191
     58  CZ3       61.2850   22.9750   12.8350 C.ar  624  TRP624      0.0001
     59  CH2       62.4430   23.3990   12.1790 C.ar  624  TRP624      0.0015
     60  N         64.3460   16.7070   16.9870 N.3   627  SER627     -0.1217
     61  CA        65.3120   15.7630   16.4030 C.3   627  SER627      0.1889
     62  C         66.7810   16.1990   16.4260 C.2   627  SER627      0.2288
     63  O         67.4380   16.2090   17.4890 O.2   627  SER627     -0.2866
     64  CB        64.9100   15.4220   14.9450 C.3   627  SER627      0.2089
     65  OG        64.4330   14.0960   14.7950 O.3   627  SER627     -0.2183
     66  N         70.0320   12.9930   15.1850 N.3   631  ILE631     -0.1245
     67  CA        70.5040   12.8520   13.8340 C.3   631  ILE631      0.1561
     68  C         71.5000   13.9350   13.5040 C.2   631  ILE631      0.2260
     69  O         71.8560   14.1230   12.3320 O.2   631  ILE631     -0.2867
     70  CB        69.3540   12.7070   12.8160 C.3   631  ILE631      0.0252
     71  CG1       69.8270   11.8650   11.6340 C.3   631  ILE631      0.0019
     72  CG2       68.7130   14.0410   12.4500 C.3   631  ILE631      0.0019
     73  CD1       69.8320   10.3860   11.9730 C.3   631  ILE631      0.0001
     74  N         68.4160    4.3020   14.0910 N.3   649  PHE649     -0.1241
     75  CA        67.2110    4.9330   13.5480 C.3   649  PHE649      0.1605
     76  C         67.0950    4.6570   12.0360 C.2   649  PHE649      0.2264
     77  O         66.1110    4.0510   11.5870 O.2   649  PHE649     -0.2867
     78  CB        67.1930    6.4330   13.9060 C.3   649  PHE649      0.0534
     79  CG        65.9000    7.1190   13.6140 C.ar  649  PHE649     -0.0203
     80  CD1       64.7890    6.9160   14.4310 C.ar  649  PHE649     -0.0042
     81  CD2       65.7920    7.9930   12.5290 C.ar  649  PHE649     -0.0042
     82  CE1       63.5540    7.5670   14.1430 C.ar  649  PHE649     -0.0003
     83  CE2       64.5840    8.6580   12.2360 C.ar  649  PHE649     -0.0003
     84  CZ        63.4610    8.4520   13.0340 C.ar  649  PHE649     -0.0000
     85  N         66.2260    1.1730   11.6610 N.3   652  GLY652     -0.1210
     86  CA        64.7830    1.1200   11.5910 C.3   652  GLY652      0.1956
     87  C         64.3720    1.7050   10.2570 C.2   652  GLY652      0.2611
     88  O         63.4270    1.2200    9.6230 O.2   652  GLY652     -0.2717
     89  N         65.0990    2.7380    9.8230 N.am  653  HIS653     -0.1975
     90  CA        64.8040    3.3940    8.5570 C.3   653  HIS653      0.1656
     91  C         65.3730    2.6310    7.3530 C.2   653  HIS653      0.2291
     92  O         65.0270    3.0080    6.2380 O.2   653  HIS653     -0.2864
     93  CB        65.2420    4.8740    8.5440 C.3   653  HIS653      0.0771
     94  CG        64.1380    5.8680    8.8140 C.ar  653  HIS653      0.0820
     95  ND1       64.0430    6.5810    9.9940 N.ar  653  HIS653     -0.2267
     96  CD2       63.1220    6.3100    8.0290 C.ar  653  HIS653      0.1154
     97  CE1       63.0010    7.3920    9.9310 C.ar  653  HIS653      0.1986
     98  NE2       62.4210    7.2410    8.7540 N.ar  653  HIS653     -0.2212
     99  N         63.2910   -1.3590    8.3000 N.3   656  TRP656     -0.1241
    100  CA        61.9140   -1.1610    7.8600 C.3   656  TRP656      0.1605
    101  C         61.9270   -1.4500    6.3560 C.2   656  TRP656      0.2264
    102  O         62.2060   -2.5840    5.9790 O.2   656  TRP656     -0.2867
    103  CB        61.4070    0.2570    8.1690 C.3   656  TRP656      0.0550
    104  CG        59.9750    0.2420    8.5690 C.ar  656  TRP656      0.0003
    105  CD1       59.4900    0.0790    9.8200 C.ar  656  TRP656      0.0946
    106  CD2       58.8420    0.3360    7.7080 C.ar  656  TRP656      0.0152
    107  NE1       58.1200    0.0790    9.8080 N.ar  656  TRP656     -0.2442
    108  CE2       57.6940    0.2400    8.5220 C.ar  656  TRP656      0.0810
    109  CE3       58.6810    0.5190    6.3290 C.ar  656  TRP656      0.0012
    110  CZ2       56.4050    0.3230    8.0120 C.ar  656  TRP656      0.0191
    111  CZ3       57.3840    0.6070    5.8110 C.ar  656  TRP656      0.0001
    112  CH2       56.2660    0.5000    6.6540 C.ar  656  TRP656      0.0015
    113  N         60.1740   -5.3490    8.6780 N.3   712  PHE712     -0.1241
    114  CA        59.1040   -4.3700    8.9920 C.3   712  PHE712      0.1605
    115  C         59.0890   -4.1600   10.4960 C.2   712  PHE712      0.2264
    116  O         60.1330   -3.9180   11.0820 O.2   712  PHE712     -0.2867
    117  CB        57.7560   -4.9740    8.5480 C.3   712  PHE712      0.0534
    118  CG        56.7570   -3.9830    8.0300 C.ar  712  PHE712     -0.0203
    119  CD1       56.6410   -3.7460    6.6690 C.ar  712  PHE712     -0.0042
    120  CD2       55.8740   -3.3330    8.8900 C.ar  712  PHE712     -0.0042
    121  CE1       55.6810   -2.8340    6.1640 C.ar  712  PHE712     -0.0003
    122  CE2       54.9110   -2.4120    8.4080 C.ar  712  PHE712     -0.0003
    123  CZ        54.8200   -2.1620    7.0440 C.ar  712  PHE712     -0.0000
    124  N         61.9440   -3.2840   12.1200 N.3   715  GLY715     -0.1210
    125  CA        62.2740   -1.9050   11.7350 C.3   715  GLY715      0.1956
    126  C         61.3970   -0.9360   12.5030 C.2   715  GLY715      0.2611
    127  O         61.8690    0.0620   13.0310 O.2   715  GLY715     -0.2717
    128  N         60.1130   -1.2670   12.5740 N.am  716  TYR716     -0.1976
    129  CA        59.0730   -0.3690   13.0550 C.3   716  TYR716      0.1639
    130  C         59.0230   -0.4110   14.5530 C.2   716  TYR716      0.2290
    131  O         58.6400    0.5690   15.2030 O.2   716  TYR716     -0.2864
    132  CB        57.7090   -0.7820   12.5160 C.3   716  TYR716      0.0560
    133  CG        56.6330    0.1650   12.9100 C.ar  716  TYR716     -0.0198
    134  CD1       56.2560    0.3070   14.2590 C.ar  716  TYR716     -0.0009
    135  CD2       55.9750    0.9230   11.9490 C.ar  716  TYR716     -0.0009
    136  CE1       55.2660    1.1950   14.6380 C.ar  716  TYR716      0.0417
    137  CE2       54.9740    1.8170   12.3100 C.ar  716  TYR716      0.0417
    138  CZ        54.6280    1.9570   13.6550 C.ar  716  TYR716      0.1957
    139  OH        53.6470    2.8530   14.0100 O.3   716  TYR716     -0.2866
    140  N         61.6620   -0.7820   15.7760 N.3   718  PHE718     -0.1227
    141  CA        62.8230    0.1060   15.8330 C.3   718  PHE718      0.1736
    142  C         62.5350    1.5500   15.4520 C.2   718  PHE718      0.2596
    143  O         61.4500    1.8700   14.9690 O.2   718  PHE718     -0.2718
    144  CB        64.0390   -0.4730   15.0940 C.3   718  PHE718      0.0547
    145  CG        64.8380   -1.3880   15.9490 C.ar  718  PHE718     -0.0202
    146  CD1       65.4740   -0.8930   17.0870 C.ar  718  PHE718     -0.0042
    147  CD2       64.8890   -2.7480   15.6860 C.ar  718  PHE718     -0.0042
    148  CE1       66.1800   -1.7240   17.9220 C.ar  718  PHE718     -0.0003
    149  CE2       65.5960   -3.5940   16.5310 C.ar  718  PHE718     -0.0003
    150  CZ        66.2520   -3.0760   17.6440 C.ar  718  PHE718     -0.0000
    151  N         63.5160    2.4120   15.7130 N.am  719  THR719     -0.1939
    152  CA        63.4620    3.8740   15.4360 C.3   719  THR719      0.2028
    153  C         62.6630    4.6810   16.4550 C.2   719  THR719      0.2642
    154  O         63.2690    5.2310   17.3710 O.2   719  THR719     -0.2714
    155  CB        63.0240    4.2450   13.9870 C.3   719  THR719      0.1808
    156  OG1       61.6210    4.0200   13.8320 O.3   719  THR719     -0.2208
    157  CG2       63.8200    3.4590   12.9680 C.3   719  THR719      0.0379
    158  N         61.3300    4.7550   16.2930 N.am  720  TYR720     -0.1973
    159  CA        60.4480    5.4080   17.3010 C.3   720  TYR720      0.1639
    160  C         61.0370    5.0130   18.6230 C.2   720  TYR720      0.2290
    161  O         61.3480    5.8560   19.4630 O.2   720  TYR720     -0.2864
    162  CB        58.9980    4.9160   17.2180 C.3   720  TYR720      0.0560
    163  CG        57.9810    5.9310   17.6830 C.ar  720  TYR720     -0.0198
    164  CD1       57.6290    7.0190   16.8560 C.ar  720  TYR720     -0.0009
    165  CD2       57.3450    5.8090   18.9250 C.ar  720  TYR720     -0.0009
    166  CE1       56.6670    7.9910   17.2550 C.ar  720  TYR720      0.0417
    167  CE2       56.3840    6.7680   19.3440 C.ar  720  TYR720      0.0417
    168  CZ        56.0510    7.8600   18.5010 C.ar  720  TYR720      0.1957
    169  OH        55.1270    8.8140   18.8750 O.3   720  TYR720     -0.2866
    170  N         64.2620    6.8220   18.7990 N.3   723  PHE723     -0.1241
    171  CA        63.8830    8.2180   18.7310 C.3   723  PHE723      0.1605
    172  C         63.3570    8.6190   20.1140 C.2   723  PHE723      0.2264
    173  O         64.0710    9.3080   20.8660 O.2   723  PHE723     -0.2867
    174  CB        62.8920    8.3530   17.5720 C.3   723  PHE723      0.0534
    175  CG        61.9960    9.5420   17.6230 C.ar  723  PHE723     -0.0203
    176  CD1       60.6280    9.3860   17.3770 C.ar  723  PHE723     -0.0042
    177  CD2       62.4950   10.8150   17.8410 C.ar  723  PHE723     -0.0042
    178  CE1       59.7580   10.4870   17.3780 C.ar  723  PHE723     -0.0003
    179  CE2       61.6420   11.9320   17.8710 C.ar  723  PHE723     -0.0003
    180  CZ        60.2750   11.7710   17.6350 C.ar  723  PHE723     -0.0000
@<TRIPOS>BOND
     1   111   109   ar
     2   111   112   ar
     3   102   101    2
     4   121   119   ar
     5   121   123   ar
     6    92    91    2
     7   109   106   ar
     8   101   100    1
     9   112   110   ar
    10   119   118   ar
    11   123   122   ar
    12    91    90    1
    13   106   108   ar
    14   106   104   ar
    15   100   103    1
    16   100    99    1
    17   110   108   ar
    18    96    98   ar
    19    96    94   ar
    20   118   117    1
    21   118   120   ar
    22   103   104    1
    23   122   120   ar
    24   108   107   ar
    25    93    90    1
    26    93    94    1
    27   117   114    1
    28    90    89    1
    29   104   105   ar
    30   113   114    1
    31    98    97   ar
    32    94    95   ar
    33   114   115    1
    34    88    87    2
    35   107   105   ar
    36    89    87   am
    37    97    95   ar
    38    54    52   ar
    39    54    55   ar
    40    52    51   ar
    41    87    86    1
    42   115   116    2
    43     8     6   am
    44    55    57   ar
    45    55    53   ar
    46     7     6    2
    47    51    50    1
    48    51    53   ar
    49    24    26   ar
    50    24    22   ar
    51     6     5    1
    52    26    25   ar
    53    57    59   ar
    54    50    47    1
    55    53    56   ar
    56     5     2    1
    57    77    76    2
    58    86    85    1
    59    71    73    1
    60    71    70    1
    61   125   124    1
    62   125   126    1
    63   135   137   ar
    64   135   133   ar
    65    76    75    1
    66    22    21   ar
    67    22    20   ar
    68    59    58   ar
    69    83    81   ar
    70    83    84   ar
    71    47    46    1
    72    47    48    1
    73   137   138   ar
    74    21    19   ar
    75    69    68    2
    76    25    23   ar
    77    72    70    1
    78   126   128   am
    79   126   127    2
    80   132   133    1
    81   132   129    1
    82    56    58   ar
    83    81    79   ar
    84   128   129    1
    85    43    42    1
    86    43    44    1
    87    43    45    1
    88    42    39    1
    89     2     1    1
    90     2     3    1
    91    46    40   am
    92    70    67    1
    93   133   134   ar
    94   157   155    1
    95    84    82   ar
    96   129   130    1
    97    49    48    2
    98    20    23   ar
    99    20    18   ar
   100    68    67    1
   101    40    39    1
   102    40    41    2
   103    75    78    1
   104    75    74    1
   105    79    78    1
   106    79    80   ar
   107    19    18   ar
   108   138   139    1
   109   138   136   ar
   110   156   155    1
   111    67    66    1
   112    39    38    1
   113     3     4    2
   114   155   152    1
   115    82    80   ar
   116    37    36   ar
   117    37    35   ar
   118   134   136   ar
   119    18    17    1
   120    36    34   ar
   121   130   131    2
   122    10    11    1
   123    10     9    1
   124    65    64    1
   125    64    61    1
   126   143   142    2
   127    35    33   ar
   128   144   141    1
   129   144   145    1
   130   152   151    1
   131   152   153    1
   132    11    12    2
   133    11    13   am
   134   142   151   am
   135   142   141    1
   136    34    32   ar
   137   147   145   ar
   138   147   149   ar
   139   140   141    1
   140    17    14    1
   141    13    14    1
   142   145   146   ar
   143    33    32   ar
   144   158   153   am
   145   158   159    1
   146    14    15    1
   147    32    31    1
   148    61    62    1
   149    61    60    1
   150    62    63    2
   151   153   154    2
   152   149   150   ar
   153   164   166   ar
   154   164   163   ar
   155   146   148   ar
   156   162   159    1
   157   162   163    1
   158   166   168   ar
   159   159   160    1
   160   176   178   ar
   161   176   175   ar
   162   178   180   ar
   163    31    28    1
   164   174   175    1
   165   174   171    1
   166   175   177   ar
   167   180   179   ar
   168   150   148   ar
   169   163   165   ar
   170   177   179   ar
   171    15    16    2
   172   168   169    1
   173   168   167   ar
   174   160   161    2
   175   171   170    1
   176   171   172    1
   177    28    27    1
   178    28    29    1
   179   165   167   ar
   180    29    30    2
   181   172   173    2
