@<TRIPOS>MOLECULE
tmp/2o01A07.pdb
 86 76 0 0 0
SMALL
GASTEIGER

@<TRIPOS>ATOM
      1  N         62.5530    3.7290  -26.0610 N.3   333  ALA333     -0.1245
      2  CA        63.8600    3.7360  -25.3880 C.3   333  ALA333      0.1562
      3  C         64.6360    4.9460  -25.9200 C.2   333  ALA333      0.2260
      4  O         65.2330    5.7230  -25.1680 O.2   333  ALA333     -0.2867
      5  CB        64.6050    2.4250  -25.6480 C.3   333  ALA333      0.0290
      6  N         65.8140    8.0370  -23.6760 N.3   337  SER337     -0.1217
      7  CA        66.8480    8.9700  -23.2820 C.3   337  SER337      0.1889
      8  C         66.5780   10.3220  -23.9410 C.2   337  SER337      0.2288
      9  O         66.8760   11.3650  -23.3560 O.2   337  SER337     -0.2866
     10  CB        68.2680    8.4470  -23.5400 C.3   337  SER337      0.2089
     11  OG        68.7670    7.8210  -22.3570 O.3   337  SER337     -0.2183
     12  N         66.1880   12.4690  -21.2580 N.3   340  ILE340     -0.1245
     13  CA        67.2100   12.3430  -20.2260 C.3   340  ILE340      0.1561
     14  C         68.4390   12.9390  -20.9170 C.2   340  ILE340      0.2260
     15  O         69.3980   13.3210  -20.2660 O.2   340  ILE340     -0.2867
     16  CB        67.5190   10.8410  -19.8200 C.3   340  ILE340      0.0252
     17  CG1       68.7590   10.2650  -20.5270 C.3   340  ILE340      0.0019
     18  CG2       66.3230    9.9040  -20.0610 C.3   340  ILE340      0.0019
     19  CD1       70.0300   10.2790  -19.7340 C.3   340  ILE340      0.0001
     20  N         62.9690   14.6540  -16.8580 N.3   370  MET370     -0.1245
     21  CA        63.7500   13.4600  -16.6420 C.3   370  MET370      0.1570
     22  C         62.8240   12.3850  -16.1300 C.2   370  MET370      0.2261
     23  O         63.1630   11.1960  -16.2150 O.2   370  MET370     -0.2867
     24  CB        64.8990   13.7020  -15.6790 C.3   370  MET370      0.0387
     25  CG        66.0270   12.6840  -15.7340 C.3   370  MET370      0.0595
     26  SD        67.4370   13.4180  -14.8840 S.3   370  MET370     -0.1393
     27  CE        68.6870   12.1420  -14.9070 C.3   370  MET370      0.0692
     28  N         62.6380    8.7340  -18.1170 N.3   374  GLY374     -0.1225
     29  CA        62.5840    7.5840  -17.2060 C.3   374  GLY374      0.1811
     30  C         61.2610    6.8570  -17.3490 C.2   374  GLY374      0.2280
     31  O         61.1810    5.7830  -17.9510 O.2   374  GLY374     -0.2866
     32  N         61.2720    5.3960  -21.2550 N.3   377  ILE377     -0.1231
     33  CA        62.0950    4.1850  -21.4240 C.3   377  ILE377      0.1692
     34  C         61.7620    3.0370  -20.4380 C.2   377  ILE377      0.2591
     35  O         61.5500    1.9100  -20.8920 O.2   377  ILE377     -0.2718
     36  CB        63.6130    4.5000  -21.4430 C.3   377  ILE377      0.0266
     37  CG1       64.4270    3.2140  -21.6320 C.3   377  ILE377      0.0019
     38  CG2       64.0360    5.3550  -20.2210 C.3   377  ILE377      0.0020
     39  CD1       64.7090    2.4170  -20.3370 C.3   377  ILE377      0.0001
     40  N         61.7070    3.3240  -19.1230 N.am  378  VAL378     -0.1980
     41  CA        61.4290    2.3150  -18.0640 C.3   378  VAL378      0.1595
     42  C         59.9760    1.7720  -18.1080 C.2   378  VAL378      0.2287
     43  O         59.3760    1.3850  -17.0750 O.2   378  VAL378     -0.2864
     44  CB        61.7420    2.8530  -16.6370 C.3   378  VAL378      0.0276
     45  CG1       61.7170    1.7090  -15.6040 C.3   378  VAL378      0.0022
     46  CG2       63.0950    3.5380  -16.6010 C.3   378  VAL378      0.0022
     47  N         73.4100    5.2850   -9.9640 N.3   515  HIS515     -0.1241
     48  CA        72.7150    5.4440  -11.2350 C.3   515  HIS515      0.1621
     49  C         73.4650    4.4640  -12.0820 C.2   515  HIS515      0.2264
     50  O         72.8840    3.7360  -12.8770 O.2   515  HIS515     -0.2867
     51  CB        72.8870    6.8240  -11.8930 C.3   515  HIS515      0.0745
     52  CG        73.0860    7.9610  -10.9420 C.ar  515  HIS515      0.0817
     53  ND1       72.2990    9.0890  -10.9690 N.ar  515  HIS515     -0.2268
     54  CD2       74.0040    8.1680   -9.9710 C.ar  515  HIS515      0.1154
     55  CE1       72.7000    9.9290  -10.0350 C.ar  515  HIS515      0.1986
     56  NE2       73.7330    9.3910   -9.4120 N.ar  515  HIS515     -0.2212
     57  N         70.2710    1.5010  -12.8600 N.3   519  ILE519     -0.1245
     58  CA        70.0230    1.3380  -14.3100 C.3   519  ILE519      0.1561
     59  C         70.7100    0.0980  -14.8190 C.2   519  ILE519      0.2260
     60  O         71.0910    0.0400  -16.0000 O.2   519  ILE519     -0.2867
     61  CB        70.5410    2.5120  -15.1780 C.3   519  ILE519      0.0252
     62  CG1       70.3210    3.8810  -14.5000 C.3   519  ILE519      0.0019
     63  CG2       69.9030    2.4460  -16.5790 C.3   519  ILE519      0.0019
     64  CD1       71.1730    5.0190  -15.1100 C.3   519  ILE519      0.0001
     65  N         66.9330   -2.1430  -15.4850 N.3   523  VAL523     -0.1245
     66  CA        66.8330   -2.9890  -16.6620 C.3   523  VAL523      0.1561
     67  C         66.8260   -4.4750  -16.1410 C.2   523  VAL523      0.2260
     68  O         66.5920   -4.7250  -14.9460 O.2   523  VAL523     -0.2867
     69  CB        67.9500   -2.6620  -17.7300 C.3   523  VAL523      0.0252
     70  CG1       67.3550   -2.1830  -19.0500 C.3   523  VAL523      0.0019
     71  CG2       68.9270   -1.6340  -17.2130 C.3   523  VAL523      0.0019
     72  N         64.7650    7.2240  -11.2010 N.3   579  ILE579     -0.1245
     73  CA        64.5080    8.6140  -11.6460 C.3   579  ILE579      0.1561
     74  C         64.2560    9.4720  -10.4150 C.2   579  ILE579      0.2260
     75  O         64.8940   10.5020  -10.2470 O.2   579  ILE579     -0.2867
     76  CB        63.2930    8.7330  -12.5870 C.3   579  ILE579      0.0252
     77  CG1       63.6890    8.3890  -14.0130 C.3   579  ILE579      0.0019
     78  CG2       62.7420   10.1490  -12.5420 C.3   579  ILE579      0.0019
     79  CD1       64.7420    9.2910  -14.5640 C.3   579  ILE579      0.0001
     80  N         68.4690   10.3360   -8.4730 N.3   582  VAL582     -0.1245
     81  CA        69.1960   10.9690   -9.5760 C.3   582  VAL582      0.1561
     82  C         68.7590   12.4410   -9.7000 C.2   582  VAL582      0.2260
     83  O         69.5680   13.3520   -9.5120 O.2   582  VAL582     -0.2867
     84  CB        69.0400   10.1330  -10.8430 C.3   582  VAL582      0.0252
     85  CG1       69.6450   10.8210  -12.0390 C.3   582  VAL582      0.0019
     86  CG2       69.6840    8.7880  -10.5910 C.3   582  VAL582      0.0019
@<TRIPOS>BOND
     1     1     2    1
     2     3     2    1
     3     3     4    2
     4     5     2    1
     5     8     9    2
     6     8     7    1
     7     6     7    1
     8    10     7    1
     9    10    11    1
    10    37    36    1
    11    37    39    1
    12    36    33    1
    13    36    38    1
    14    33    32    1
    15    33    34    1
    16    12    13    1
    17    14    15    2
    18    14    13    1
    19    35    34    2
    20    17    16    1
    21    17    19    1
    22    34    40   am
    23    13    16    1
    24    18    16    1
    25    40    41    1
    26    70    69    1
    27    28    29    1
    28    42    41    1
    29    42    43    2
    30    41    44    1
    31    31    30    2
    32    69    71    1
    33    69    66    1
    34    30    29    1
    35    20    21    1
    36    66    67    1
    37    66    65    1
    38    21    22    1
    39    21    24    1
    40    44    46    1
    41    44    45    1
    42    63    61    1
    43    23    22    2
    44    67    68    2
    45    60    59    2
    46    25    24    1
    47    25    26    1
    48    61    62    1
    49    61    58    1
    50    64    62    1
    51    27    26    1
    52    59    58    1
    53    79    77    1
    54    58    57    1
    55    77    76    1
    56    50    49    2
    57    76    78    1
    58    76    73    1
    59    49    48    1
    60    85    84    1
    61    51    48    1
    62    51    52    1
    63    73    72    1
    64    73    74    1
    65    48    47    1
    66    53    52   ar
    67    53    55   ar
    68    52    54   ar
    69    84    86    1
    70    84    81    1
    71    74    75    2
    72    55    56   ar
    73    54    56   ar
    74    82    81    1
    75    82    83    2
    76    81    80    1
