@<TRIPOS>MOLECULE
tmp/2o01B49.pdb
 87 85 0 0 0
SMALL
GASTEIGER

@<TRIPOS>ATOM
      1  N         66.2410    1.6060    7.5540 N.3   654  LEU654     -0.1245
      2  CA        66.4670    0.5230    6.5210 C.3   654  LEU654      0.1561
      3  C         65.6320   -0.7430    6.7700 C.2   654  LEU654      0.2260
      4  O         64.6240   -0.9840    6.1030 O.2   654  LEU654     -0.2867
      5  CB        67.9500    0.1140    6.3120 C.3   654  LEU654      0.0270
      6  CG        68.2520   -0.9060    5.1460 C.3   654  LEU654      0.0019
      7  CD1       67.7190   -0.4870    3.7440 C.3   654  LEU654      0.0001
      8  CD2       69.7350   -1.3890    5.0200 C.3   654  LEU654      0.0001
      9  N         61.6250   -0.4440    5.5250 N.3   657  ALA657     -0.1231
     10  CA        61.9770   -0.3690    4.0670 C.3   657  ALA657      0.1694
     11  C         61.9960   -1.6560    3.1920 C.2   657  ALA657      0.2592
     12  O         61.2260   -1.7870    2.2220 O.2   657  ALA657     -0.2718
     13  CB        63.3090    0.4010    3.8850 C.3   657  ALA657      0.0304
     14  N         62.9060   -2.5750    3.5410 N.am  658  THR658     -0.1953
     15  CA        63.1280   -3.8050    2.8140 C.3   658  THR658      0.1897
     16  C         62.2850   -4.9620    3.2970 C.2   658  THR658      0.2313
     17  O         62.3320   -6.0310    2.7260 O.2   658  THR658     -0.2863
     18  CB        64.5640   -4.1980    2.8990 C.3   658  THR658      0.1794
     19  OG1       64.6540   -5.4400    3.6050 O.3   658  THR658     -0.2208
     20  CG2       65.3250   -3.1320    3.6350 C.3   658  THR658      0.0378
     21  N         59.8510   -4.9320    2.2800 N.3   660  PHE660     -0.1227
     22  CA        59.0820   -4.3430    1.1930 C.3   660  PHE660      0.1736
     23  C         59.1550   -5.2090   -0.0580 C.2   660  PHE660      0.2595
     24  O         58.1270   -5.5500   -0.6450 O.2   660  PHE660     -0.2718
     25  CB        59.5670   -2.9110    0.8990 C.3   660  PHE660      0.0547
     26  CG        58.6200   -1.8420    1.3670 C.ar  660  PHE660     -0.0202
     27  CD1       58.6100   -1.4230    2.7070 C.ar  660  PHE660     -0.0042
     28  CD2       57.7130   -1.2540    0.4690 C.ar  660  PHE660     -0.0042
     29  CE1       57.7080   -0.4140    3.1460 C.ar  660  PHE660     -0.0003
     30  CE2       56.8030   -0.2520    0.9020 C.ar  660  PHE660     -0.0003
     31  CZ        56.8060    0.1710    2.2460 C.ar  660  PHE660     -0.0000
     32  N         60.3740   -5.5440   -0.4630 N.am  661  MET661     -0.1979
     33  CA        60.5750   -6.4530   -1.5530 C.3   661  MET661      0.1605
     34  C         59.6370   -7.6560   -1.2530 C.2   661  MET661      0.2287
     35  O         58.5720   -7.8170   -1.8950 O.2   661  MET661     -0.2864
     36  CB        62.0680   -6.8120   -1.6490 C.3   661  MET661      0.0413
     37  CG        62.5440   -7.2620   -3.0380 C.3   661  MET661      0.0598
     38  SD        64.2970   -6.9090   -3.3910 S.3   661  MET661     -0.1393
     39  CE        65.0930   -7.6230   -1.9410 C.3   661  MET661      0.0692
     40  N         55.7190   -6.2480   -1.6630 N.3   664  ILE664     -0.1231
     41  CA        55.2560   -5.7780   -2.9730 C.3   664  ILE664      0.1692
     42  C         55.7150   -6.7920   -3.9910 C.2   664  ILE664      0.2592
     43  O         54.9710   -7.0970   -4.9240 O.2   664  ILE664     -0.2718
     44  CB        55.7330   -4.2990   -3.3510 C.3   664  ILE664      0.0266
     45  CG1       54.8820   -3.2380   -2.6550 C.3   664  ILE664      0.0019
     46  CG2       55.6010   -4.0190   -4.8340 C.3   664  ILE664      0.0020
     47  CD1       55.6640   -2.2450   -1.8370 C.3   664  ILE664      0.0001
     48  N         56.9160   -7.3400   -3.7920 N.am  665  SER665     -0.1952
     49  CA        57.4910   -8.2390   -4.7860 C.3   665  SER665      0.1924
     50  C         57.1330   -9.7050   -4.5110 C.2   665  SER665      0.2314
     51  O         57.9050  -10.4180   -3.8460 O.2   665  SER665     -0.2863
     52  CB        59.0040   -8.0460   -4.9120 C.3   665  SER665      0.2116
     53  OG        59.7350   -8.9000   -4.0550 O.3   665  SER665     -0.2180
     54  N         58.4110  -14.6450   -9.3530 N.3   669  TYR669     -0.1227
     55  CA        59.4370  -13.8680   -9.9910 C.3   669  TYR669      0.1736
     56  C         60.7880  -14.2800   -9.3700 C.2   669  TYR669      0.2595
     57  O         61.8620  -14.0010   -9.9020 O.2   669  TYR669     -0.2718
     58  CB        59.1500  -12.3630   -9.8330 C.3   669  TYR669      0.0548
     59  CG        60.3790  -11.5330  -10.1130 C.ar  669  TYR669     -0.0200
     60  CD1       60.5210  -10.8200  -11.3040 C.ar  669  TYR669     -0.0009
     61  CD2       61.4350  -11.5150   -9.1970 C.ar  669  TYR669     -0.0009
     62  CE1       61.6820  -10.0850  -11.5460 C.ar  669  TYR669      0.0417
     63  CE2       62.5860  -10.8070   -9.4350 C.ar  669  TYR669      0.0417
     64  CZ        62.7170  -10.0970  -10.5960 C.ar  669  TYR669      0.1957
     65  OH        63.8900   -9.3950  -10.7840 O.3   669  TYR669     -0.2866
     66  N         60.7450  -14.9810   -8.2580 N.am  670  TRP670     -0.1976
     67  CA        62.0030  -15.2990   -7.6220 C.3   670  TRP670      0.1640
     68  C         62.6510  -16.5880   -8.0820 C.2   670  TRP670      0.2290
     69  O         63.7840  -16.5470   -8.5540 O.2   670  TRP670     -0.2864
     70  CB        61.9240  -15.0900   -6.1050 C.3   670  TRP670      0.0576
     71  CG        61.6200  -13.6750   -5.9150 C.ar  670  TRP670      0.0006
     72  CD1       60.3880  -13.1070   -5.9030 C.ar  670  TRP670      0.0946
     73  CD2       62.5660  -12.6050   -5.8560 C.ar  670  TRP670      0.0152
     74  NE1       60.5030  -11.7490   -5.7800 N.ar  670  TRP670     -0.2442
     75  CE2       61.8330  -11.4110   -5.7590 C.ar  670  TRP670      0.0810
     76  CE3       63.9680  -12.5400   -5.8740 C.ar  670  TRP670      0.0012
     77  CZ2       62.4460  -10.1700   -5.6580 C.ar  670  TRP670      0.0191
     78  CZ3       64.5740  -11.3070   -5.7910 C.ar  670  TRP670      0.0001
     79  CH2       63.8130  -10.1410   -5.6790 C.ar  670  TRP670      0.0015
     80  N         63.8190  -16.4280  -11.8220 N.3   673  LEU673     -0.1245
     81  CA        65.1040  -15.7150  -11.8340 C.3   673  LEU673      0.1561
     82  C         66.1790  -16.5620  -11.1490 C.2   673  LEU673      0.2260
     83  O         67.2290  -16.8280  -11.7330 O.2   673  LEU673     -0.2867
     84  CB        64.9560  -14.3570  -11.1210 C.3   673  LEU673      0.0270
     85  CG        66.0430  -13.2690  -11.0590 C.3   673  LEU673      0.0019
     86  CD1       65.4700  -12.0840  -10.3090 C.3   673  LEU673      0.0001
     87  CD2       67.3640  -13.7050  -10.4060 C.3   673  LEU673      0.0001
@<TRIPOS>BOND
     1    81    80    1
     2    81    82    1
     3    81    84    1
     4    83    82    2
     5    62    60   ar
     6    62    64   ar
     7    60    59   ar
     8    84    85    1
     9    85    87    1
    10    85    86    1
    11    65    64    1
    12    64    63   ar
    13    59    58    1
    14    59    61   ar
    15    55    58    1
    16    55    56    1
    17    55    54    1
    18    57    56    2
    19    63    61   ar
    20    56    66   am
    21    69    68    2
    22    66    67    1
    23    68    67    1
    24    67    70    1
    25    70    71    1
    26    71    72   ar
    27    71    73   ar
    28    72    74   ar
    29    76    73   ar
    30    76    78   ar
    31    73    75   ar
    32    78    79   ar
    33    74    75   ar
    34    75    77   ar
    35    79    77   ar
    36    43    42    2
    37    52    49    1
    38    52    53    1
    39    46    44    1
    40    49    50    1
    41    49    48    1
    42    50    51    2
    43    42    48   am
    44    42    41    1
    45    38    37    1
    46    38    39    1
    47    44    41    1
    48    44    45    1
    49    37    36    1
    50    41    40    1
    51    45    47    1
    52    35    34    2
    53    36    33    1
    54    33    34    1
    55    33    32    1
    56    24    23    2
    57    32    23   am
    58    23    22    1
    59    28    30   ar
    60    28    26   ar
    61    25    22    1
    62    25    26    1
    63    30    31   ar
    64    22    21    1
    65    26    27   ar
    66    12    11    2
    67    31    29   ar
    68    27    29   ar
    69    17    16    2
    70    15    18    1
    71    15    16    1
    72    15    14    1
    73    18    19    1
    74    18    20    1
    75    11    14   am
    76    11    10    1
    77     7     6    1
    78    13    10    1
    79    10     9    1
    80     8     6    1
    81     6     5    1
    82     4     3    2
    83     5     2    1
    84     2     3    1
    85     2     1    1
