@<TRIPOS>MOLECULE
tmp/2o01B47.pdb
 134 128 0 0 0
SMALL
GASTEIGER

@<TRIPOS>ATOM
      1  N         32.7000   -1.5920   11.1670 N.3   422  SER422     -0.1217
      2  CA        32.6420   -1.3570    9.7420 C.3   422  SER422      0.1889
      3  C         31.9030   -0.0370    9.5750 C.2   422  SER422      0.2288
      4  O         32.5150    0.9940    9.2920 O.2   422  SER422     -0.2866
      5  CB        31.7940   -2.4380    9.1220 C.3   422  SER422      0.2089
      6  OG        30.5700   -2.5280    9.8370 O.3   422  SER422     -0.2183
      7  N         33.3520    2.2840   11.4850 N.3   425  SER425     -0.1202
      8  CA        34.5900    2.8970   10.9930 C.3   425  SER425      0.2020
      9  C         34.4750    3.8410    9.7730 C.2   425  SER425      0.2618
     10  O         35.1730    4.8560    9.7220 O.2   425  SER425     -0.2717
     11  CB        35.6490    1.8250   10.7270 C.3   425  SER425      0.2103
     12  OG        35.9030    1.1000   11.9130 O.3   425  SER425     -0.2182
     13  N         33.6310    3.5030    8.7910 N.am  426  LEU426     -0.1979
     14  CA        33.4250    4.3740    7.6230 C.3   426  LEU426      0.1596
     15  C         32.5260    5.5100    8.0680 C.2   426  LEU426      0.2287
     16  O         31.3380    5.5740    7.7070 O.2   426  LEU426     -0.2864
     17  CB        32.8680    3.5940    6.4290 C.3   426  LEU426      0.0297
     18  CG        33.8970    3.5000    5.2970 C.3   426  LEU426      0.0022
     19  CD1       33.5200    2.4370    4.3400 C.3   426  LEU426      0.0001
     20  CD2       34.0160    4.7780    4.5330 C.3   426  LEU426      0.0001
     21  N         34.3180    7.6170   11.6260 N.3   428  LEU428     -0.1231
     22  CA        35.6530    7.2740   12.1570 C.3   428  LEU428      0.1693
     23  C         36.4800    6.9110   10.9220 C.2   428  LEU428      0.2593
     24  O         37.5930    6.4050   11.0040 O.2   428  LEU428     -0.2718
     25  CB        35.6260    6.1810   13.2270 C.3   428  LEU428      0.0284
     26  CG        35.2170    6.5520   14.6790 C.3   428  LEU428      0.0019
     27  CD1       33.9310    7.3930   14.7670 C.3   428  LEU428      0.0001
     28  CD2       35.0540    5.3010   15.5540 C.3   428  LEU428      0.0001
     29  N         35.8740    7.2370    9.7720 N.am  429  GLY429     -0.1942
     30  CA        36.4520    7.1680    8.4350 C.3   429  GLY429      0.2014
     31  C         36.5160    8.5400    7.7910 C.2   429  GLY429      0.2638
     32  O         37.6070    9.0830    7.5910 O.2   429  GLY429     -0.2714
     33  N         35.3540    9.1060    7.4690 N.am  430  PHE430     -0.1973
     34  CA        35.2980   10.4560    6.8630 C.3   430  PHE430      0.1639
     35  C         35.4190   11.5560    7.9120 C.2   430  PHE430      0.2290
     36  O         36.2790   12.4350    7.7850 O.2   430  PHE430     -0.2864
     37  CB        34.0250   10.6560    6.0480 C.3   430  PHE430      0.0560
     38  CG        33.7540    9.5430    5.0930 C.ar  430  PHE430     -0.0200
     39  CD1       32.5100    8.9070    5.0890 C.ar  430  PHE430     -0.0042
     40  CD2       34.7630    9.1020    4.2100 C.ar  430  PHE430     -0.0042
     41  CE1       32.2590    7.8660    4.2290 C.ar  430  PHE430     -0.0003
     42  CE2       34.5270    8.0710    3.3330 C.ar  430  PHE430     -0.0003
     43  CZ        33.2640    7.4490    3.3410 C.ar  430  PHE430     -0.0000
     44  N         38.7700    5.1500   16.1740 N.3   524  LEU524     -0.1245
     45  CA        38.6750    4.6240   14.8330 C.3   524  LEU524      0.1561
     46  C         39.4720    3.3360   14.8800 C.2   524  LEU524      0.2260
     47  O         38.8840    2.2470   14.8700 O.2   524  LEU524     -0.2867
     48  CB        39.2550    5.5750   13.7970 C.3   524  LEU524      0.0270
     49  CG        40.1430    4.9650   12.6700 C.3   524  LEU524      0.0019
     50  CD1       39.5170    3.7350   11.9330 C.3   524  LEU524      0.0001
     51  CD2       40.6760    6.0120   11.6450 C.3   524  LEU524      0.0001
     52  N         38.6330   -1.5480   13.2820 N.3   528  THR528     -0.1218
     53  CA        39.1120   -1.5610   11.9190 C.3   528  THR528      0.1862
     54  C         40.5020   -2.1170   12.0740 C.2   528  THR528      0.2287
     55  O         41.3420   -2.0420   11.1900 O.2   528  THR528     -0.2866
     56  CB        39.1700   -0.1060   11.3190 C.3   528  THR528      0.1770
     57  OG1       38.1420    0.7280   11.8850 O.3   528  THR528     -0.2211
     58  CG2       39.0330   -0.1060    9.7860 C.3   528  THR528      0.0375
     59  N         37.3160   -6.1200   12.9750 N.3   531  LEU531     -0.1231
     60  CA        36.7950   -6.7640   11.7320 C.3   531  LEU531      0.1693
     61  C         37.7630   -7.6670   10.9170 C.2   531  LEU531      0.2591
     62  O         37.4180   -8.8220   10.6710 O.2   531  LEU531     -0.2718
     63  CB        35.9920   -5.8220   10.8460 C.3   531  LEU531      0.0284
     64  CG        36.7000   -4.6530   10.2210 C.3   531  LEU531      0.0019
     65  CD1       37.8230   -5.1780    9.3870 C.3   531  LEU531      0.0001
     66  CD2       35.7100   -3.9070    9.3660 C.3   531  LEU531      0.0001
     67  N         38.9460   -7.1540   10.5340 N.am  532  ILE532     -0.1980
     68  CA        40.0410   -8.0060   10.0540 C.3   532  ILE532      0.1595
     69  C         39.9860   -9.2930   10.8500 C.2   532  ILE532      0.2287
     70  O         39.5210  -10.3450   10.3820 O.2   532  ILE532     -0.2864
     71  CB        41.4700   -7.4470   10.3780 C.3   532  ILE532      0.0276
     72  CG1       41.5900   -5.9250   10.2210 C.3   532  ILE532      0.0022
     73  CG2       42.5030   -8.1660    9.5130 C.3   532  ILE532      0.0022
     74  CD1       43.0020   -5.3850   10.5010 C.3   532  ILE532      0.0001
     75  N         47.4710   -8.3590    7.8860 N.3   577  LEU577     -0.1245
     76  CA        46.5380   -7.2220    7.6870 C.3   577  LEU577      0.1561
     77  C         46.0650   -6.6980    9.0450 C.2   577  LEU577      0.2260
     78  O         46.2150   -5.5070    9.3550 O.2   577  LEU577     -0.2867
     79  CB        45.3560   -7.5220    6.7510 C.3   577  LEU577      0.0270
     80  CG        45.4700   -7.1990    5.2470 C.3   577  LEU577      0.0019
     81  CD1       46.4890   -6.0770    4.9720 C.3   577  LEU577      0.0001
     82  CD2       45.7630   -8.4430    4.4030 C.3   577  LEU577      0.0001
     83  N         48.8130   -5.2550   10.6220 N.3   580  PHE580     -0.1227
     84  CA        49.1580   -3.9520   10.0140 C.3   580  PHE580      0.1736
     85  C         48.4210   -2.8070   10.6740 C.2   580  PHE580      0.2595
     86  O         49.0710   -1.9030   11.2290 O.2   580  PHE580     -0.2718
     87  CB        48.9680   -3.8970    8.4890 C.3   580  PHE580      0.0547
     88  CG        50.1800   -4.3360    7.7190 C.ar  580  PHE580     -0.0202
     89  CD1       50.0570   -5.1130    6.5730 C.ar  580  PHE580     -0.0042
     90  CD2       51.4580   -4.0180    8.1810 C.ar  580  PHE580     -0.0042
     91  CE1       51.1710   -5.5330    5.8790 C.ar  580  PHE580     -0.0003
     92  CE2       52.5840   -4.4520    7.5010 C.ar  580  PHE580     -0.0003
     93  CZ        52.4410   -5.2000    6.3400 C.ar  580  PHE580     -0.0000
     94  N         47.0820   -2.8710   10.6370 N.am  581  TRP581     -0.1976
     95  CA        46.2140   -1.7840   11.0970 C.3   581  TRP581      0.1640
     96  C         46.3140   -1.4990   12.6080 C.2   581  TRP581      0.2290
     97  O         46.0130   -0.3890   13.0610 O.2   581  TRP581     -0.2864
     98  CB        44.7640   -2.0340   10.6680 C.3   581  TRP581      0.0576
     99  CG        44.2140   -0.8790    9.8740 C.ar  581  TRP581      0.0006
    100  CD1       44.2450   -0.7350    8.5170 C.ar  581  TRP581      0.0946
    101  CD2       43.5930    0.3110   10.3840 C.ar  581  TRP581      0.0152
    102  NE1       43.6750    0.4620    8.1460 N.ar  581  TRP581     -0.2442
    103  CE2       43.2730    1.1240    9.2730 C.ar  581  TRP581      0.0810
    104  CE3       43.2700    0.7650   11.6680 C.ar  581  TRP581      0.0012
    105  CZ2       42.6550    2.3540    9.4070 C.ar  581  TRP581      0.0191
    106  CZ3       42.6470    1.9960   11.7940 C.ar  581  TRP581      0.0001
    107  CH2       42.3510    2.7750   10.6740 C.ar  581  TRP581      0.0015
    108  N         49.3750    0.4150   13.0890 N.3   584  ASN584     -0.1240
    109  CA        48.7650    1.7050   12.7050 C.3   584  ASN584      0.1653
    110  C         48.0490    2.3370   13.9130 C.2   584  ASN584      0.2266
    111  O         48.3040    3.4790   14.3040 O.2   584  ASN584     -0.2867
    112  CB        47.7680    1.4580   11.5510 C.3   584  ASN584      0.1155
    113  CG        47.0520    2.7240   11.0690 C.2   584  ASN584      0.2627
    114  OD1       47.6700    3.7760   10.9020 O.2   584  ASN584     -0.2716
    115  ND2       45.7520    2.5970   10.7760 N.am  584  ASN584     -0.0877
    116  N         56.8000   -8.6610    0.1930 N.3   663  LEU663     -0.1245
    117  CA        55.6660   -7.7040    0.3020 C.3   663  LEU663      0.1561
    118  C         55.1230   -7.2690   -1.0500 C.2   663  LEU663      0.2260
    119  O         54.1530   -7.8600   -1.5170 O.2   663  LEU663     -0.2867
    120  CB        55.9170   -6.4850    1.2190 C.3   663  LEU663      0.0270
    121  CG        54.9870   -6.5480    2.4370 C.3   663  LEU663      0.0019
    122  CD1       55.1620   -5.4250    3.4570 C.3   663  LEU663      0.0001
    123  CD2       53.5290   -6.6330    1.9730 C.3   663  LEU663      0.0001
    124  N         60.1740   -5.3490    8.6780 N.3   712  PHE712     -0.1241
    125  CA        59.1040   -4.3700    8.9920 C.3   712  PHE712      0.1605
    126  C         59.0890   -4.1600   10.4960 C.2   712  PHE712      0.2264
    127  O         60.1330   -3.9180   11.0820 O.2   712  PHE712     -0.2867
    128  CB        57.7560   -4.9740    8.5480 C.3   712  PHE712      0.0534
    129  CG        56.7570   -3.9830    8.0300 C.ar  712  PHE712     -0.0203
    130  CD1       56.6410   -3.7460    6.6690 C.ar  712  PHE712     -0.0042
    131  CD2       55.8740   -3.3330    8.8900 C.ar  712  PHE712     -0.0042
    132  CE1       55.6810   -2.8340    6.1640 C.ar  712  PHE712     -0.0003
    133  CE2       54.9110   -2.4120    8.4080 C.ar  712  PHE712     -0.0003
    134  CZ        54.8200   -2.1620    7.0440 C.ar  712  PHE712     -0.0000
@<TRIPOS>BOND
     1   119   118    2
     2   118   117    1
     3   116   117    1
     4   117   120    1
     5   120   121    1
     6   123   121    1
     7   121   122    1
     8    42    43   ar
     9    42    40   ar
    10    43    41   ar
    11    40    38   ar
    12    41    39   ar
    13    19    18    1
    14    82    80    1
    15    20    18    1
    16    81    80    1
    17    39    38   ar
    18    38    37    1
    19    80    79    1
    20    18    17    1
    21    91    93   ar
    22    91    89   ar
    23    37    34    1
    24   132   130   ar
    25   132   134   ar
    26    93    92   ar
    27    17    14    1
    28    89    88   ar
    29   130   129   ar
    30    79    76    1
    31    34    33    1
    32    34    35    1
    33   134   133   ar
    34    33    31   am
    35    92    90   ar
    36    32    31    2
    37    14    15    1
    38    14    13    1
    39    76    75    1
    40    76    77    1
    41    16    15    2
    42    88    90   ar
    43    88    87    1
    44    36    35    2
    45    31    30    1
    46   129   128    1
    47   129   131   ar
    48   102   100   ar
    49   102   103   ar
    50   133   131   ar
    51    30    29    1
    52    87    84    1
    53   100    99   ar
    54   128   125    1
    55   124   125    1
    56    13     9   am
    57   125   126    1
    58    77    78    2
    59     5     2    1
    60     5     6    1
    61   103   105   ar
    62   103   101   ar
    63     4     3    2
    64    66    64    1
    65    65    64    1
    66   105   107   ar
    67    73    71    1
    68     3     2    1
    69    10     9    2
    70     2     1    1
    71    29    23   am
    72     9     8    1
    73    58    56    1
    74    99   101   ar
    75    99    98    1
    76    84    83    1
    77    84    85    1
    78    68    71    1
    79    68    67    1
    80    68    69    1
    81    72    71    1
    82    72    74    1
    83    64    63    1
    84    70    69    2
    85   101   104   ar
    86   126   127    2
    87    67    61   am
    88    94    85   am
    89    94    95    1
    90    98    95    1
    91    62    61    2
    92   107   106   ar
    93    85    86    2
    94    11     8    1
    95    11    12    1
    96   115   113   am
    97    63    60    1
    98   114   113    2
    99    61    60    1
   100    23    24    2
   101    23    22    1
   102     8     7    1
   103   113   112    1
   104    95    96    1
   105    55    54    2
   106    56    57    1
   107    56    53    1
   108   112   109    1
   109    21    22    1
   110    51    49    1
   111   104   106   ar
   112    60    59    1
   113    53    54    1
   114    53    52    1
   115    50    49    1
   116    22    25    1
   117    96    97    2
   118    49    48    1
   119   109   108    1
   120   109   110    1
   121    25    26    1
   122    48    45    1
   123   110   111    2
   124    26    27    1
   125    26    28    1
   126    45    46    1
   127    45    44    1
   128    47    46    2
