@<TRIPOS>MOLECULE
tmp/2o01A10.pdb
 214 208 0 0 0
SMALL
GASTEIGER

@<TRIPOS>ATOM
      1  N         37.6360    0.0090  -18.9440 N.3    28  HIS28      -0.1226
      2  CA        38.5820    1.1070  -18.7320 C.3    28  HIS28       0.1752
      3  C         40.0130    0.5800  -18.7980 C.2    28  HIS28       0.2596
      4  O         40.9610    1.3510  -18.8640 O.2    28  HIS28      -0.2718
      5  CB        38.2960    1.8690  -17.4190 C.3    28  HIS28       0.0759
      6  CG        37.2320    2.9250  -17.5570 C.ar   28  HIS28       0.0818
      7  ND1       35.9210    2.6190  -17.8640 N.ar   28  HIS28      -0.2268
      8  CD2       37.2840    4.2810  -17.4670 C.ar   28  HIS28       0.1154
      9  CE1       35.2120    3.7320  -17.9420 C.ar   28  HIS28       0.1986
     10  NE2       36.0120    4.7550  -17.7020 N.ar   28  HIS28      -0.2212
     11  N         40.1270   -0.7520  -18.8220 N.am   29  ALA29      -0.1966
     12  CA        41.4070   -1.4720  -18.8310 C.3    29  ALA29       0.1728
     13  C         41.5050   -2.5230  -19.9490 C.2    29  ALA29       0.2616
     14  O         41.9110   -3.6720  -19.7340 O.2    29  ALA29      -0.2715
     15  CB        41.6810   -2.1020  -17.4560 C.3    29  ALA29       0.0334
     16  N         41.1040   -2.0790  -21.1360 N.am   30  ASP30      -0.1957
     17  CA        41.2440   -2.7750  -22.4020 C.3    30  ASP30       0.1840
     18  C         41.0990   -1.6100  -23.3960 C.2    30  ASP30       0.2622
     19  O         42.0950   -0.9930  -23.7780 O.2    30  ASP30      -0.2715
     20  CB        40.1640   -3.8680  -22.5640 C.3    30  ASP30       0.1450
     21  CG        40.5340   -5.1810  -21.8420 C.2    30  ASP30       0.3671
     22  OD1       39.6370   -5.9110  -21.3280 O.co2  30  ASP30      -0.2456
     23  OD2       41.7520   -5.4770  -21.7980 O.co2  30  ASP30      -0.2456
     24  N         39.8670   -1.2890  -23.7740 N.am   31  ALA31      -0.1963
     25  CA        39.5100   -0.0460  -24.4810 C.3    31  ALA31       0.1728
     26  C         40.3970    0.5490  -25.6140 C.2    31  ALA31       0.2616
     27  O         39.9240    0.7390  -26.7380 O.2    31  ALA31      -0.2715
     28  CB        39.1560    1.0030  -23.4770 C.3    31  ALA31       0.0334
     29  N         41.6420    0.9170  -25.3090 N.am   32  HIS32      -0.1959
     30  CA        42.5440    1.4390  -26.3420 C.3    32  HIS32       0.1787
     31  C         43.1290    0.2040  -26.9970 C.2    32  HIS32       0.2620
     32  O         42.6620   -0.2060  -28.0640 O.2    32  HIS32      -0.2715
     33  CB        43.6570    2.3460  -25.7660 C.3    32  HIS32       0.0785
     34  CG        43.1560    3.6030  -25.1130 C.ar   32  HIS32       0.0821
     35  ND1       42.5670    3.6170  -23.8630 N.ar   32  HIS32      -0.2267
     36  CD2       43.1570    4.8880  -25.5400 C.ar   32  HIS32       0.1154
     37  CE1       42.2200    4.8550  -23.5560 C.ar   32  HIS32       0.1986
     38  NE2       42.5700    5.6440  -24.5550 N.ar   32  HIS32      -0.2212
     39  N         44.1270   -0.3830  -26.3190 N.am   33  ASP33      -0.1957
     40  CA        44.7880   -1.6620  -26.6460 C.3    33  ASP33       0.1840
     41  C         44.2970   -2.4430  -27.8620 C.2    33  ASP33       0.2622
     42  O         43.1930   -2.2180  -28.3680 O.2    33  ASP33      -0.2715
     43  CB        44.7470   -2.5820  -25.4170 C.3    33  ASP33       0.1450
     44  CG        44.7900   -4.0480  -25.7890 C.2    33  ASP33       0.3671
     45  OD1       43.7120   -4.6260  -25.9930 O.co2  33  ASP33      -0.2456
     46  OD2       45.8860   -4.6140  -25.9360 O.co2  33  ASP33      -0.2456
     47  N         45.1130   -3.3970  -28.3040 N.am   34  PHE34      -0.1974
     48  CA        44.6820   -4.2730  -29.3890 C.3    34  PHE34       0.1639
     49  C         44.6370   -5.7560  -29.0600 C.2    34  PHE34       0.2290
     50  O         44.3190   -6.0890  -27.9240 O.2    34  PHE34      -0.2864
     51  CB        45.3830   -3.9000  -30.6880 C.3    34  PHE34       0.0560
     52  CG        45.0900   -2.4870  -31.0940 C.ar   34  PHE34      -0.0200
     53  CD1       45.9760   -1.4630  -30.7910 C.ar   34  PHE34      -0.0042
     54  CD2       43.8830   -2.1660  -31.6990 C.ar   34  PHE34      -0.0042
     55  CE1       45.6780   -0.1550  -31.1410 C.ar   34  PHE34      -0.0003
     56  CE2       43.5870   -0.8640  -32.0390 C.ar   34  PHE34      -0.0003
     57  CZ        44.4860    0.1450  -31.7580 C.ar   34  PHE34      -0.0000
     58  N         43.3790   -8.1250  -27.9030 N.3    36  SER36      -0.1217
     59  CA        42.0680   -7.9800  -27.2850 C.3    36  SER36       0.1889
     60  C         41.3970   -6.8740  -28.1170 C.2    36  SER36       0.2288
     61  O         40.4100   -6.2530  -27.7050 O.2    36  SER36      -0.2866
     62  CB        42.2010   -7.5910  -25.8170 C.3    36  SER36       0.2089
     63  OG        42.7960   -6.3140  -25.7050 O.3    36  SER36      -0.2183
     64  N         47.4030    9.4540  -31.3760 N.3    52  HIS52      -0.1241
     65  CA        48.2700   10.2390  -32.3270 C.3    52  HIS52       0.1621
     66  C         47.7240   11.5710  -32.8930 C.2    52  HIS52       0.2264
     67  O         48.4780   12.4880  -33.2710 O.2    52  HIS52      -0.2867
     68  CB        48.8040    9.3890  -33.4610 C.3    52  HIS52       0.0745
     69  CG        49.7640    8.3410  -33.0310 C.ar   52  HIS52       0.0817
     70  ND1       51.0870    8.3590  -33.4070 N.ar   52  HIS52      -0.2268
     71  CD2       49.5960    7.2260  -32.2840 C.ar   52  HIS52       0.1154
     72  CE1       51.6920    7.2920  -32.9190 C.ar   52  HIS52       0.1986
     73  NE2       50.8110    6.5920  -32.2240 N.ar   52  HIS52      -0.2212
     74  N         53.2480   -2.2970  -32.1990 N.3   325  HIS325     -0.1241
     75  CA        53.6940   -3.2020  -31.1240 C.3   325  HIS325      0.1621
     76  C         55.0830   -3.8120  -31.3470 C.2   325  HIS325      0.2264
     77  O         55.9740   -3.6590  -30.4930 O.2   325  HIS325     -0.2867
     78  CB        52.6560   -4.3040  -30.8540 C.3   325  HIS325      0.0745
     79  CG        51.8520   -4.0940  -29.6080 C.ar  325  HIS325      0.0817
     80  ND1       50.4750   -4.0330  -29.6040 N.ar  325  HIS325     -0.2268
     81  CD2       52.2380   -3.9470  -28.3210 C.ar  325  HIS325      0.1154
     82  CE1       50.0490   -3.8610  -28.3660 C.ar  325  HIS325      0.1986
     83  NE2       51.0970   -3.8050  -27.5670 N.ar  325  HIS325     -0.2212
     84  N         57.3100   -1.1160  -31.4150 N.3   328  LEU328     -0.1245
     85  CA        57.0050   -0.0850  -30.3890 C.3   328  LEU328      0.1561
     86  C         57.9180    0.1110  -29.1620 C.2   328  LEU328      0.2260
     87  O         57.6690    0.9980  -28.3640 O.2   328  LEU328     -0.2867
     88  CB        55.5520   -0.2660  -29.9050 C.3   328  LEU328      0.0270
     89  CG        54.5520    0.8960  -29.8200 C.3   328  LEU328      0.0019
     90  CD1       53.1510    0.3620  -29.4980 C.3   328  LEU328      0.0001
     91  CD2       54.9480    2.0150  -28.8360 C.3   328  LEU328      0.0001
     92  N         60.6610    4.4220  -28.2050 N.3   332  LEU332     -0.1245
     93  CA        60.4910    4.8110  -26.8060 C.3   332  LEU332      0.1561
     94  C         61.7920    4.8170  -26.0280 C.2   332  LEU332      0.2260
     95  O         62.1210    5.8140  -25.4120 O.2   332  LEU332     -0.2867
     96  CB        59.3990    3.9970  -26.1090 C.3   332  LEU332      0.0270
     97  CG        57.9940    4.6330  -26.2220 C.3   332  LEU332      0.0019
     98  CD1       57.4550    4.8030  -27.6780 C.3   332  LEU332      0.0001
     99  CD2       56.9790    3.8550  -25.3700 C.3   332  LEU332      0.0001
    100  N         60.2120    7.4450  -16.8100 N.3   375  PHE375     -0.1227
    101  CA        58.9130    6.9720  -17.1760 C.3   375  PHE375      0.1736
    102  C         59.0630    6.3320  -18.5540 C.2   375  PHE375      0.2595
    103  O         58.9670    5.1090  -18.6640 O.2   375  PHE375     -0.2718
    104  CB        57.8810    8.1130  -17.1950 C.3   375  PHE375      0.0547
    105  CG        56.9150    8.0930  -16.0370 C.ar  375  PHE375     -0.0202
    106  CD1       55.5590    8.3830  -16.2560 C.ar  375  PHE375     -0.0042
    107  CD2       57.3500    7.7810  -14.7340 C.ar  375  PHE375     -0.0042
    108  CE1       54.6340    8.3770  -15.1880 C.ar  375  PHE375     -0.0003
    109  CE2       56.4480    7.7600  -13.6560 C.ar  375  PHE375     -0.0003
    110  CZ        55.0770    8.0660  -13.8770 C.ar  375  PHE375     -0.0000
    111  N         59.3670    7.1250  -19.5860 N.am  376  LEU376     -0.1980
    112  CA        59.1620    6.6370  -20.9730 C.3   376  LEU376      0.1596
    113  C         59.9360    5.3710  -21.3840 C.2   376  LEU376      0.2287
    114  O         59.2990    4.3940  -21.8100 O.2   376  LEU376     -0.2864
    115  CB        59.2530    7.7500  -22.0440 C.3   376  LEU376      0.0297
    116  CG        57.9060    8.3940  -22.4630 C.3   376  LEU376      0.0022
    117  CD1       58.0920    9.5260  -23.4810 C.3   376  LEU376      0.0001
    118  CD2       56.9010    7.3690  -23.0050 C.3   376  LEU376      0.0001
    119  N         59.4340    1.7550  -19.3260 N.3   379  GLY379     -0.1225
    120  CA        58.1360    1.2020  -19.6270 C.3   379  GLY379      0.1811
    121  C         58.0230    1.2060  -21.1280 C.2   379  GLY379      0.2280
    122  O         56.9210    1.1630  -21.6730 O.2   379  GLY379     -0.2866
    123  N         57.9820   -2.8670  -22.4610 N.3   382  ALA382     -0.1231
    124  CA        56.9100   -3.7620  -22.1130 C.3   382  ALA382      0.1694
    125  C         56.2280   -3.9500  -23.4500 C.2   382  ALA382      0.2592
    126  O         55.1590   -4.5390  -23.5210 O.2   382  ALA382     -0.2718
    127  CB        55.9920   -3.1180  -21.1370 C.3   382  ALA382      0.0304
    128  N         56.8710   -3.4200  -24.4990 N.am  383  HIS383     -0.1976
    129  CA        56.4380   -3.5780  -25.8950 C.3   383  HIS383      0.1656
    130  C         57.2230   -4.6860  -26.6110 C.2   383  HIS383      0.2291
    131  O         56.8290   -5.1230  -27.7110 O.2   383  HIS383     -0.2864
    132  CB        56.5360   -2.2560  -26.6960 C.3   383  HIS383      0.0771
    133  CG        55.3810   -1.3240  -26.4890 C.ar  383  HIS383      0.0820
    134  ND1       54.0920   -1.6370  -26.8650 N.ar  383  HIS383     -0.2267
    135  CD2       55.3290   -0.0780  -25.9650 C.ar  383  HIS383      0.1154
    136  CE1       53.2880   -0.6360  -26.5540 C.ar  383  HIS383      0.1986
    137  NE2       54.0150    0.3240  -26.0140 N.ar  383  HIS383     -0.2212
    138  N         54.1230   -8.2480  -24.9900 N.3   386  ILE386     -0.1245
    139  CA        52.9370   -8.1430  -25.8520 C.3   386  ILE386      0.1561
    140  C         53.3190   -8.8470  -27.1870 C.2   386  ILE386      0.2260
    141  O         53.5370  -10.0570  -27.1790 O.2   386  ILE386     -0.2867
    142  CB        52.3370   -6.6970  -25.9350 C.3   386  ILE386      0.0252
    143  CG1       53.4030   -5.6070  -25.7900 C.3   386  ILE386      0.0019
    144  CG2       51.3720   -6.5060  -24.8190 C.3   386  ILE386      0.0019
    145  CD1       52.9160   -4.2840  -25.1450 C.3   386  ILE386      0.0001
    146  N         52.0260  -11.6050  -28.5620 N.3   390  ARG390     -0.1245
    147  CA        51.0510  -10.8580  -29.3910 C.3   390  ARG390      0.1563
    148  C         51.4520  -10.6230  -30.8860 C.2   390  ARG390      0.2260
    149  O         51.6410  -11.5770  -31.6400 O.2   390  ARG390     -0.2867
    150  CB        50.6240   -9.5520  -28.6890 C.3   390  ARG390      0.0307
    151  CG        49.8750   -9.7710  -27.3880 C.3   390  ARG390      0.0489
    152  CD        49.4710   -8.4770  -26.7520 C.3   390  ARG390      0.2205
    153  NE        48.0870   -8.0970  -27.0090 N.pl3 390  ARG390     -0.0865
    154  CZ        47.6340   -6.8440  -26.9730 C.cat 390  ARG390      0.5346
    155  NH1       48.4380   -5.8210  -26.7080 N.pl3 390  ARG390      0.1354
    156  NH2       46.3660   -6.6010  -27.2070 N.pl3 390  ARG390      0.1354
    157  N         48.3890  -10.7800  -22.1640 N.3   547  PHE547     -0.1227
    158  CA        49.5270   -9.9050  -21.7760 C.3   547  PHE547      0.1736
    159  C         49.6340   -9.7320  -20.2710 C.2   547  PHE547      0.2595
    160  O         50.6020  -10.2050  -19.6700 O.2   547  PHE547     -0.2718
    161  CB        49.6120   -8.5190  -22.4540 C.3   547  PHE547      0.0547
    162  CG        50.7920   -7.6660  -21.9350 C.ar  547  PHE547     -0.0202
    163  CD1       52.0880   -8.2220  -21.8070 C.ar  547  PHE547     -0.0042
    164  CD2       50.6090   -6.3350  -21.5530 C.ar  547  PHE547     -0.0042
    165  CE1       53.1740   -7.4570  -21.3130 C.ar  547  PHE547     -0.0003
    166  CE2       51.6870   -5.5570  -21.0630 C.ar  547  PHE547     -0.0003
    167  CZ        52.9690   -6.1190  -20.9460 C.ar  547  PHE547     -0.0000
    168  N         48.6700   -9.0250  -19.6750 N.am  548  ARG548     -0.1980
    169  CA        48.6120   -8.9260  -18.2160 C.3   548  ARG548      0.1597
    170  C         48.7430  -10.3340  -17.6150 C.2   548  ARG548      0.2287
    171  O         49.8540  -10.7730  -17.3010 O.2   548  ARG548     -0.2864
    172  CB        47.3890   -8.1370  -17.6800 C.3   548  ARG548      0.0334
    173  CG        46.1830   -7.9450  -18.6440 C.3   548  ARG548      0.0492
    174  CD        44.8130   -8.3450  -17.9860 C.3   548  ARG548      0.2205
    175  NE        44.5680   -7.6920  -16.6770 N.pl3 548  ARG548     -0.0865
    176  CZ        43.4210   -7.7380  -15.9980 C.cat 548  ARG548      0.5346
    177  NH1       42.3970   -8.4050  -16.4730 N.pl3 548  ARG548      0.1354
    178  NH2       43.2890   -7.1090  -14.8550 N.pl3 548  ARG548      0.1354
    179  N         53.7260   -7.9710  -17.9850 N.3   565  TRP565     -0.1241
    180  CA        52.7640   -6.9670  -17.5730 C.3   565  TRP565      0.1605
    181  C         53.0480   -6.7290  -16.1160 C.2   565  TRP565      0.2264
    182  O         53.0650   -5.5780  -15.6640 O.2   565  TRP565     -0.2867
    183  CB        51.3020   -7.3880  -17.7580 C.3   565  TRP565      0.0550
    184  CG        50.3660   -6.2860  -17.3090 C.ar  565  TRP565      0.0003
    185  CD1       49.6790   -5.4120  -18.1150 C.ar  565  TRP565      0.0946
    186  CD2       50.0760   -5.8880  -15.9550 C.ar  565  TRP565      0.0152
    187  NE1       48.9760   -4.5030  -17.3460 N.ar  565  TRP565     -0.2442
    188  CE2       49.2010   -4.7760  -16.0200 C.ar  565  TRP565      0.0810
    189  CE3       50.4550   -6.3710  -14.7010 C.ar  565  TRP565      0.0012
    190  CZ2       48.6940   -4.1540  -14.8790 C.ar  565  TRP565      0.0191
    191  CZ3       49.9530   -5.7560  -13.5740 C.ar  565  TRP565      0.0001
    192  CH2       49.0760   -4.6590  -13.6690 C.ar  565  TRP565      0.0015
    193  N         56.5390   -5.6310  -15.5940 N.3   568  VAL568     -0.1245
    194  CA        56.4190   -4.1580  -15.6910 C.3   568  VAL568      0.1561
    195  C         55.8080   -3.5390  -14.4270 C.2   568  VAL568      0.2260
    196  O         56.2280   -2.4750  -14.0060 O.2   568  VAL568     -0.2867
    197  CB        55.7640   -3.6820  -17.0500 C.3   568  VAL568      0.0252
    198  CG1       54.5850   -2.7600  -16.8400 C.3   568  VAL568      0.0019
    199  CG2       56.8060   -3.0270  -17.9260 C.3   568  VAL568      0.0019
    200  N         58.4960   -0.5180  -13.2750 N.3   572  LEU572     -0.1245
    201  CA        58.4450    0.8570  -12.7830 C.3   572  LEU572      0.1561
    202  C         59.1090    0.8790  -11.4060 C.2   572  LEU572      0.2260
    203  O         60.3030    1.1290  -11.3530 O.2   572  LEU572     -0.2867
    204  CB        57.0100    1.4680  -12.8370 C.3   572  LEU572      0.0270
    205  CG        56.1290    1.2110  -14.1100 C.3   572  LEU572      0.0019
    206  CD1       54.7580    1.8520  -14.0970 C.3   572  LEU572      0.0001
    207  CD2       56.8020    1.5120  -15.4690 C.3   572  LEU572      0.0001
    208  N         50.1550    2.8560   -9.6360 N.3   706  THR706     -0.1218
    209  CA        49.7990    4.2070   -9.8530 C.3   706  THR706      0.1862
    210  C         49.9400    4.9650   -8.5140 C.2   706  THR706      0.2287
    211  O         50.7560    5.8820   -8.4520 O.2   706  THR706     -0.2866
    212  CB        48.4570    4.2660  -10.5450 C.3   706  THR706      0.1770
    213  OG1       47.9490    2.9250  -10.6320 O.3   706  THR706     -0.2211
    214  CG2       48.6750    4.7430  -11.9930 C.3   706  THR706      0.0375
@<TRIPOS>BOND
     1    68    69    1
     2    68    65    1
     3    70    69   ar
     4    70    72   ar
     5    67    66    2
     6    69    71   ar
     7    72    73   ar
     8    66    65    1
     9    65    64    1
    10    71    73   ar
    11    74    75    1
    12    56    57   ar
    13    56    54   ar
    14    57    55   ar
    15    54    52   ar
    16   149   148    2
    17    84    85    1
    18    76    75    1
    19    76    77    2
    20    55    53   ar
    21    75    78    1
    22    52    53   ar
    23    52    51    1
    24   148   147    1
    25    78    79    1
    26    51    48    1
    27    85    88    1
    28    85    86    1
    29    88    89    1
    30    89    90    1
    31    89    91    1
    32    79    80   ar
    33    79    81   ar
    34    80    82   ar
    35   147   150    1
    36   147   146    1
    37    48    49    1
    38    48    47    1
    39    86    87    2
    40    49    50    2
    41   150   151    1
    42    42    41    2
    43    82    83   ar
    44    81    83   ar
    45    47    41   am
    46    92    93    1
    47    60    61    2
    48    60    59    1
    49    32    31    2
    50    58    59    1
    51    41    40    1
    52   131   130    2
    53    98    97    1
    54   151   152    1
    55    59    62    1
    56   156   154    1
    57   140   141    2
    58   140   139    1
    59   153   154    2
    60   153   152    1
    61    31    30    1
    62    31    39   am
    63   154   155    1
    64   134   136   ar
    65   134   133   ar
    66    93    96    1
    67    93    94    1
    68    27    26    2
    69   132   133    1
    70   132   129    1
    71    40    39    1
    72    40    43    1
    73   130   129    1
    74   136   137   ar
    75   133   135   ar
    76    30    33    1
    77    30    29    1
    78    97    96    1
    79    97    99    1
    80    94    95    2
    81   137   135   ar
    82    45    44   ar
    83    46    44   ar
    84   142   139    1
    85   142   143    1
    86   142   144    1
    87   129   128    1
    88   139   138    1
    89    62    63    1
    90   143   145    1
    91    44    43    1
    92    33    34    1
    93    26    29   am
    94    26    25    1
    95    36    34   ar
    96    36    38   ar
    97    34    35   ar
    98    38    37   ar
    99   128   125   am
   100    25    24    1
   101    25    28    1
   102    35    37   ar
   103    19    18    2
   104    24    18   am
   105   126   125    2
   106   117   116    1
   107   125   124    1
   108    18    17    1
   109   118   116    1
   110    20    17    1
   111    20    21    1
   112   116   115    1
   113   123   124    1
   114   161   162    1
   115   161   158    1
   116    17    16    1
   117   157   158    1
   118   124   127    1
   119   115   112    1
   120   162   163   ar
   121   162   164   ar
   122    21    23   ar
   123    21    22   ar
   124   114   113    2
   125   163   165   ar
   126   158   159    1
   127   122   121    2
   128   164   166   ar
   129   113   112    1
   130   165   167   ar
   131    16    13   am
   132   121   120    1
   133   166   167   ar
   134   112   111    1
   135   159   168   am
   136   159   160    2
   137    13    14    2
   138    13    12    1
   139   168   169    1
   140   120   119    1
   141   111   102   am
   142     1     2    1
   143     4     3    2
   144    12    11    1
   145    12    15    1
   146    11     3   am
   147     3     2    1
   148     2     5    1
   149   103   102    2
   150   173   174    1
   151   173   172    1
   152   102   101    1
   153   169   172    1
   154   169   170    1
   155   185   187   ar
   156   185   184   ar
   157   174   175    1
   158   179   180    1
   159     9     7   ar
   160     9    10   ar
   161   199   197    1
   162     7     6   ar
   163   183   180    1
   164   183   184    1
   165    10     8   ar
   166   170   171    2
   167   180   181    1
   168     6     8   ar
   169     6     5    1
   170   187   188   ar
   171   184   186   ar
   172   104   101    1
   173   104   105    1
   174   101   100    1
   175   197   198    1
   176   197   194    1
   177   175   176    2
   178   177   176    1
   179   106   105   ar
   180   106   108   ar
   181   181   182    2
   182   105   107   ar
   183   188   186   ar
   184   188   190   ar
   185   176   178    1
   186   186   189   ar
   187   194   193    1
   188   194   195    1
   189   207   205    1
   190   108   110   ar
   191   190   192   ar
   192   107   109   ar
   193   189   191   ar
   194   195   196    2
   195   205   206    1
   196   205   204    1
   197   110   109   ar
   198   192   191   ar
   199   200   201    1
   200   204   201    1
   201   201   202    1
   202   214   212    1
   203   202   203    2
   204   213   212    1
   205   212   209    1
   206   209   208    1
   207   209   210    1
   208   210   211    2
