@<TRIPOS>MOLECULE
tmp/2o01A16.pdb
 221 216 0 0 0
SMALL
GASTEIGER

@<TRIPOS>ATOM
      1  N         66.1880   12.4690  -21.2580 N.3   340  ILE340     -0.1245
      2  CA        67.2100   12.3430  -20.2260 C.3   340  ILE340      0.1561
      3  C         68.4390   12.9390  -20.9170 C.2   340  ILE340      0.2260
      4  O         69.3980   13.3210  -20.2660 O.2   340  ILE340     -0.2867
      5  CB        67.5190   10.8410  -19.8200 C.3   340  ILE340      0.0252
      6  CG1       68.7590   10.2650  -20.5270 C.3   340  ILE340      0.0019
      7  CG2       66.3230    9.9040  -20.0610 C.3   340  ILE340      0.0019
      8  CD1       70.0300   10.2790  -19.7340 C.3   340  ILE340      0.0001
      9  N         69.9320   16.0840  -19.0010 N.3   344  GLN344     -0.1245
     10  CA        71.3460   16.1610  -18.6950 C.3   344  GLN344      0.1566
     11  C         72.0230   17.1270  -19.6750 C.2   344  GLN344      0.2260
     12  O         73.2120   17.4220  -19.5410 O.2   344  GLN344     -0.2867
     13  CB        71.9900   14.7630  -18.7630 C.3   344  GLN344      0.0367
     14  CG        73.0820   14.4880  -17.7230 C.3   344  GLN344      0.0905
     15  CD        74.2330   15.4890  -17.7770 C.2   344  GLN344      0.2608
     16  OE1       74.1420   16.5850  -17.2030 O.2   344  GLN344     -0.2717
     17  NE2       75.3260   15.1190  -18.4710 N.am  344  GLN344     -0.0878
     18  N         69.8650   22.2010  -18.5510 N.3   347  TYR347     -0.1227
     19  CA        70.6040   22.7370  -17.4040 C.3   347  TYR347      0.1736
     20  C         72.0800   22.6600  -17.7540 C.2   347  TYR347      0.2596
     21  O         72.8670   23.5800  -17.5040 O.2   347  TYR347     -0.2718
     22  CB        70.4280   21.8820  -16.1510 C.3   347  TYR347      0.0548
     23  CG        71.7470   21.2270  -15.7210 C.ar  347  TYR347     -0.0200
     24  CD1       72.7920   21.9930  -15.1960 C.ar  347  TYR347     -0.0009
     25  CD2       71.9670   19.8530  -15.8810 C.ar  347  TYR347     -0.0009
     26  CE1       74.0080   21.4140  -14.8450 C.ar  347  TYR347      0.0417
     27  CE2       73.1850   19.2590  -15.5050 C.ar  347  TYR347      0.0417
     28  CZ        74.1950   20.0490  -14.9870 C.ar  347  TYR347      0.1957
     29  OH        75.3990   19.4930  -14.6200 O.3   347  TYR347     -0.2866
     30  N         72.4470   21.5170  -18.3220 N.am  348  SER348     -0.1952
     31  CA        73.8350   21.1720  -18.4660 C.3   348  SER348      0.1924
     32  C         74.5650   22.2380  -19.2360 C.2   348  SER348      0.2314
     33  O         75.7260   22.5030  -18.9260 O.2   348  SER348     -0.2863
     34  CB        74.0100   19.7830  -19.0830 C.3   348  SER348      0.2116
     35  OG        73.4890   18.7860  -18.2150 O.3   348  SER348     -0.2180
     36  N         64.4760   20.5800  -15.2280 N.3   366  PHE366     -0.1241
     37  CA        65.4520   19.5000  -15.1200 C.3   366  PHE366      0.1605
     38  C         64.8820   18.1220  -14.7630 C.2   366  PHE366      0.2264
     39  O         65.4140   17.0730  -15.1950 O.2   366  PHE366     -0.2867
     40  CB        66.5320   19.8640  -14.0970 C.3   366  PHE366      0.0534
     41  CG        67.7190   18.9720  -14.1620 C.ar  366  PHE366     -0.0203
     42  CD1       68.9850   19.5000  -14.1220 C.ar  366  PHE366     -0.0042
     43  CD2       67.5670   17.5960  -14.3160 C.ar  366  PHE366     -0.0042
     44  CE1       70.0870   18.6730  -14.1890 C.ar  366  PHE366     -0.0003
     45  CE2       68.6570   16.7710  -14.4020 C.ar  366  PHE366     -0.0003
     46  CZ        69.9300   17.3080  -14.3320 C.ar  366  PHE366     -0.0000
     47  N         62.9690   14.6540  -16.8580 N.3   370  MET370     -0.1245
     48  CA        63.7500   13.4600  -16.6420 C.3   370  MET370      0.1570
     49  C         62.8240   12.3850  -16.1300 C.2   370  MET370      0.2261
     50  O         63.1630   11.1960  -16.2150 O.2   370  MET370     -0.2867
     51  CB        64.8990   13.7020  -15.6790 C.3   370  MET370      0.0387
     52  CG        66.0270   12.6840  -15.7340 C.3   370  MET370      0.0595
     53  SD        67.4370   13.4180  -14.8840 S.3   370  MET370     -0.1393
     54  CE        68.6870   12.1420  -14.9070 C.3   370  MET370      0.0692
     55  N         89.1010   13.1100   -7.4070 N.3   458  PHE458     -0.1241
     56  CA        89.1060   12.4980   -8.7350 C.3   458  PHE458      0.1605
     57  C         89.0220   13.5420   -9.8480 C.2   458  PHE458      0.2264
     58  O         88.1850   14.4350   -9.8290 O.2   458  PHE458     -0.2867
     59  CB        88.0000   11.3950   -8.8290 C.3   458  PHE458      0.0534
     60  CG        87.6820   10.9120  -10.2490 C.ar  458  PHE458     -0.0203
     61  CD1       88.6700   10.3230  -11.0680 C.ar  458  PHE458     -0.0042
     62  CD2       86.3890   11.0260  -10.7490 C.ar  458  PHE458     -0.0042
     63  CE1       88.3790    9.9100  -12.3520 C.ar  458  PHE458     -0.0003
     64  CE2       86.0980   10.6120  -12.0390 C.ar  458  PHE458     -0.0003
     65  CZ        87.0800   10.0510  -12.8330 C.ar  458  PHE458     -0.0000
     66  N         89.7430   13.9490  -16.3940 N.3   461  TRP461     -0.1227
     67  CA        88.3270   13.7190  -16.8100 C.3   461  TRP461      0.1737
     68  C         87.3800   14.9060  -16.8800 C.2   461  TRP461      0.2595
     69  O         86.8720   15.2980  -15.8220 O.2   461  TRP461     -0.2718
     70  CB        87.6610   12.6860  -15.9170 C.3   461  TRP461      0.0564
     71  CG        87.6800   11.2990  -16.4090 C.ar  461  TRP461      0.0003
     72  CD1       86.6750   10.6590  -17.0400 C.ar  461  TRP461      0.0946
     73  CD2       88.7300   10.3480  -16.2510 C.ar  461  TRP461      0.0152
     74  NE1       87.0210    9.3640  -17.2930 N.ar  461  TRP461     -0.2442
     75  CE2       88.2830    9.1440  -16.8140 C.ar  461  TRP461      0.0810
     76  CE3       90.0000   10.3900  -15.6670 C.ar  461  TRP461      0.0012
     77  CZ2       89.0710    7.9800  -16.8260 C.ar  461  TRP461      0.0191
     78  CZ3       90.7860    9.2370  -15.6870 C.ar  461  TRP461      0.0001
     79  CH2       90.3190    8.0500  -16.2600 C.ar  461  TRP461      0.0015
     80  N         87.0700   15.4920  -18.0480 N.am  462  ILE462     -0.1966
     81  CA        87.6010   15.3950  -19.4440 C.3   462  ILE462      0.1727
     82  C         86.4440   15.5690  -20.4500 C.2   462  ILE462      0.2616
     83  O         86.2720   14.7310  -21.3210 O.2   462  ILE462     -0.2715
     84  CB        88.5230   14.1860  -19.8660 C.3   462  ILE462      0.0290
     85  CG1       87.8800   12.8090  -19.6070 C.3   462  ILE462      0.0022
     86  CG2       89.9900   14.3590  -19.3730 C.3   462  ILE462      0.0023
     87  CD1       88.4920   11.6630  -20.4850 C.3   462  ILE462      0.0001
     88  N         85.6360   16.6330  -20.3680 N.am  463  GLN463     -0.1977
     89  CA        85.7690   17.7790  -19.4560 C.3   463  GLN463      0.1601
     90  C         87.1890   18.3480  -19.6530 C.2   463  GLN463      0.2287
     91  O         87.8030   18.0330  -20.6880 O.2   463  GLN463     -0.2864
     92  CB        85.3810   17.4140  -18.0010 C.3   463  GLN463      0.0394
     93  CG        84.5980   18.4940  -17.2920 C.3   463  GLN463      0.0908
     94  CD        83.9790   18.0910  -15.9460 C.2   463  GLN463      0.2608
     95  OE1       84.6860   17.7160  -14.9840 O.2   463  GLN463     -0.2717
     96  NE2       82.6430   18.2290  -15.8530 N.am  463  GLN463     -0.0878
     97  N         88.2120   19.5060  -22.4350 N.3   466  HIS466     -0.1241
     98  CA        87.0570   20.3020  -22.7910 C.3   466  HIS466      0.1621
     99  C         87.4980   21.7590  -22.6090 C.2   466  HIS466      0.2264
    100  O         86.7750   22.6840  -22.9840 O.2   466  HIS466     -0.2867
    101  CB        85.8800   19.9610  -21.8720 C.3   466  HIS466      0.0745
    102  CG        84.8780   19.0150  -22.4630 C.ar  466  HIS466      0.0817
    103  ND1       83.5300   19.1070  -22.1980 N.ar  466  HIS466     -0.2268
    104  CD2       85.0170   17.9660  -23.3100 C.ar  466  HIS466      0.1154
    105  CE1       82.8790   18.1670  -22.8590 C.ar  466  HIS466      0.1986
    106  NE2       83.7560   17.4640  -23.5520 N.ar  466  HIS466     -0.2212
    107  N         80.5980   24.6490  -17.2080 N.3   484  THR484     -0.1203
    108  CA        80.4190   23.4980  -16.3030 C.3   484  THR484      0.1994
    109  C         81.6630   22.6010  -16.2710 C.2   484  THR484      0.2617
    110  O         82.1160   22.1780  -15.1880 O.2   484  THR484     -0.2717
    111  CB        79.2070   22.6290  -16.6990 C.3   484  THR484      0.1784
    112  OG1       79.6530   21.4190  -17.3230 O.3   484  THR484     -0.2211
    113  CG2       78.3040   23.3700  -17.6400 C.3   484  THR484      0.0376
    114  N         82.2110   22.3250  -17.4550 N.am  485  TRP485     -0.1975
    115  CA        83.4920   21.6640  -17.5620 C.3   485  TRP485      0.1640
    116  C         84.6020   22.6550  -17.8180 C.2   485  TRP485      0.2290
    117  O         84.3400   23.8200  -18.0880 O.2   485  TRP485     -0.2864
    118  CB        83.4620   20.6270  -18.6690 C.3   485  TRP485      0.0576
    119  CG        83.1610   21.1520  -20.0490 C.ar  485  TRP485      0.0006
    120  CD1       83.9140   22.0180  -20.7940 C.ar  485  TRP485      0.0946
    121  CD2       82.0470   20.7860  -20.8650 C.ar  485  TRP485      0.0152
    122  NE1       83.3240   22.2240  -22.0120 N.ar  485  TRP485     -0.2442
    123  CE2       82.1710   21.4890  -22.0760 C.ar  485  TRP485      0.0810
    124  CE3       80.9470   19.9370  -20.6790 C.ar  485  TRP485      0.0012
    125  CZ2       81.2350   21.3740  -23.1000 C.ar  485  TRP485      0.0191
    126  CZ3       80.0180   19.8290  -21.6790 C.ar  485  TRP485      0.0001
    127  CH2       80.1650   20.5440  -22.8840 C.ar  485  TRP485      0.0015
    128  N         82.3310   22.8450  -12.0240 N.3   502  ILE502     -0.1245
    129  CA        81.6780   22.0420  -10.9610 C.3   502  ILE502      0.1561
    130  C         82.4420   20.7860  -10.6240 C.2   502  ILE502      0.2260
    131  O         82.1690   19.7330  -11.1800 O.2   502  ILE502     -0.2867
    132  CB        80.2610   21.6150  -11.2980 C.3   502  ILE502      0.0252
    133  CG1       79.9760   21.7830  -12.7840 C.3   502  ILE502      0.0019
    134  CG2       79.2900   22.4050  -10.4880 C.3   502  ILE502      0.0019
    135  CD1       78.7790   20.9140  -13.2670 C.3   502  ILE502      0.0001
    136  N         84.3750   17.4500   -9.3330 N.3   504  LEU504     -0.1245
    137  CA        83.7920   16.2080   -8.8330 C.3   504  LEU504      0.1561
    138  C         84.4540   15.5000   -7.6260 C.2   504  LEU504      0.2260
    139  O         84.1480   15.8760   -6.4810 O.2   504  LEU504     -0.2867
    140  CB        83.4420   15.2560   -9.9790 C.3   504  LEU504      0.0270
    141  CG        84.1520   15.2020  -11.3330 C.3   504  LEU504      0.0019
    142  CD1       84.2450   16.5840  -12.0440 C.3   504  LEU504      0.0001
    143  CD2       85.4950   14.5150  -11.2150 C.3   504  LEU504      0.0001
    144  N         76.7420    8.2930   -8.2510 N.3   512  HIS512     -0.1241
    145  CA        76.9410    7.8280   -9.6310 C.3   512  HIS512      0.1621
    146  C         76.9000    6.3210   -9.9300 C.2   512  HIS512      0.2264
    147  O         76.0150    5.8290  -10.6510 O.2   512  HIS512     -0.2867
    148  CB        78.2710    8.3740  -10.1370 C.3   512  HIS512      0.0745
    149  CG        78.1270    9.5310  -11.0690 C.ar  512  HIS512      0.0817
    150  ND1       79.1180   10.4770  -11.2380 N.ar  512  HIS512     -0.2268
    151  CD2       77.1060    9.8990  -11.8820 C.ar  512  HIS512      0.1154
    152  CE1       78.7160   11.3710  -12.1240 C.ar  512  HIS512      0.1986
    153  NE2       77.4990   11.0450  -12.5300 N.ar  512  HIS512     -0.2212
    154  N         73.4100    5.2850   -9.9640 N.3   515  HIS515     -0.1226
    155  CA        72.7150    5.4440  -11.2350 C.3   515  HIS515      0.1752
    156  C         73.4650    4.4640  -12.0820 C.2   515  HIS515      0.2595
    157  O         72.8840    3.7360  -12.8770 O.2   515  HIS515     -0.2718
    158  CB        72.8870    6.8240  -11.8930 C.3   515  HIS515      0.0759
    159  CG        73.0860    7.9610  -10.9420 C.ar  515  HIS515      0.0818
    160  ND1       72.2990    9.0890  -10.9690 N.ar  515  HIS515     -0.2268
    161  CD2       74.0040    8.1680   -9.9710 C.ar  515  HIS515      0.1154
    162  CE1       72.7000    9.9290  -10.0350 C.ar  515  HIS515      0.1986
    163  NE2       73.7330    9.3910   -9.4120 N.ar  515  HIS515     -0.2212
    164  N         74.7790    4.4420  -11.8910 N.am  516  ALA516     -0.1980
    165  CA        75.5910    3.4260  -12.4960 C.3   516  ALA516      0.1597
    166  C         75.0760    2.0360  -12.0830 C.2   516  ALA516      0.2287
    167  O         75.0360    1.1060  -12.8970 O.2   516  ALA516     -0.2864
    168  CB        77.0350    3.6140  -12.1080 C.3   516  ALA516      0.0319
    169  N         70.2710    1.5010  -12.8600 N.3   519  ILE519     -0.1245
    170  CA        70.0230    1.3380  -14.3100 C.3   519  ILE519      0.1561
    171  C         70.7100    0.0980  -14.8190 C.2   519  ILE519      0.2260
    172  O         71.0910    0.0400  -16.0000 O.2   519  ILE519     -0.2867
    173  CB        70.5410    2.5120  -15.1780 C.3   519  ILE519      0.0252
    174  CG1       70.3210    3.8810  -14.5000 C.3   519  ILE519      0.0019
    175  CG2       69.9030    2.4460  -16.5790 C.3   519  ILE519      0.0019
    176  CD1       71.1730    5.0190  -15.1100 C.3   519  ILE519      0.0001
    177  N         68.4690   10.3360   -8.4730 N.3   582  VAL582     -0.1245
    178  CA        69.1960   10.9690   -9.5760 C.3   582  VAL582      0.1561
    179  C         68.7590   12.4410   -9.7000 C.2   582  VAL582      0.2260
    180  O         69.5680   13.3520   -9.5120 O.2   582  VAL582     -0.2867
    181  CB        69.0400   10.1330  -10.8430 C.3   582  VAL582      0.0252
    182  CG1       69.6450   10.8210  -12.0390 C.3   582  VAL582      0.0019
    183  CG2       69.6840    8.7880  -10.5910 C.3   582  VAL582      0.0019
    184  N         70.4450   13.6330   -6.6240 N.3   585  HIS585     -0.1226
    185  CA        71.8850   13.9620   -6.6290 C.3   585  HIS585      0.1752
    186  C         72.0780   15.3250   -7.2340 C.2   585  HIS585      0.2596
    187  O         72.7500   16.1830   -6.6680 O.2   585  HIS585     -0.2718
    188  CB        72.7650   12.9890   -7.3980 C.3   585  HIS585      0.0759
    189  CG        74.1210   13.5490   -7.7010 C.ar  585  HIS585      0.0818
    190  ND1       75.2790   12.8200   -7.5790 N.ar  585  HIS585     -0.2268
    191  CD2       74.5000   14.7830   -8.0980 C.ar  585  HIS585      0.1154
    192  CE1       76.3120   13.5720   -7.9140 C.ar  585  HIS585      0.1986
    193  NE2       75.8680   14.7740   -8.2210 N.ar  585  HIS585     -0.2212
    194  N         71.4870   15.5040   -8.4010 N.am  586  PHE586     -0.1976
    195  CA        71.4170   16.8030   -9.0320 C.3   586  PHE586      0.1639
    196  C         71.1700   17.9760   -8.0570 C.2   586  PHE586      0.2290
    197  O         72.0890   18.7750   -7.8130 O.2   586  PHE586     -0.2864
    198  CB        70.3610   16.7690  -10.1410 C.3   586  PHE586      0.0560
    199  CG        69.8970   18.1050  -10.5550 C.ar  586  PHE586     -0.0200
    200  CD1       68.5590   18.3940  -10.5530 C.ar  586  PHE586     -0.0042
    201  CD2       70.8250   19.0850  -10.9190 C.ar  586  PHE586     -0.0042
    202  CE1       68.1420   19.6310  -10.9340 C.ar  586  PHE586     -0.0003
    203  CE2       70.4300   20.3240  -11.2960 C.ar  586  PHE586     -0.0003
    204  CZ        69.0850   20.6180  -11.3150 C.ar  586  PHE586     -0.0000
    205  N         73.8430   19.3860   -5.9140 N.3   589  LYS589     -0.1231
    206  CA        75.0070   19.8630   -6.6180 C.3   589  LYS589      0.1693
    207  C         74.7340   21.3250   -7.0570 C.2   589  LYS589      0.2591
    208  O         75.2700   22.2690   -6.4490 O.2   589  LYS589     -0.2718
    209  CB        75.4020   18.9310   -7.7580 C.3   589  LYS589      0.0285
    210  CG        76.9140   18.7060   -7.8130 C.3   589  LYS589      0.0035
    211  CD        77.5220   18.5270   -6.3850 C.3   589  LYS589      0.0206
    212  CE        78.9800   19.0190   -6.2370 C.3   589  LYS589      0.1093
    213  NZ        80.0330   17.9850   -6.5040 N.3   589  LYS589     -0.1314
    214  N         73.8980   21.5040   -8.0910 N.am  590  MET590     -0.1979
    215  CA        73.2150   22.7890   -8.3810 C.3   590  MET590      0.1605
    216  C         72.6500   23.3280   -7.0810 C.2   590  MET590      0.2287
    217  O         71.5780   22.9070   -6.6240 O.2   590  MET590     -0.2864
    218  CB        72.0730   22.5720   -9.3840 C.3   590  MET590      0.0413
    219  CG        72.3980   22.9120  -10.7960 C.3   590  MET590      0.0598
    220  SD        73.6700   21.8300  -11.4270 S.3   590  MET590     -0.1393
    221  CE        74.7220   23.0060  -12.3000 C.3   590  MET590      0.0692
@<TRIPOS>BOND
     1   106   104   ar
     2   106   105   ar
     3   104   102   ar
     4   125   127   ar
     5   125   123   ar
     6   100    99    2
     7   127   126   ar
     8   105   103   ar
     9    98    99    1
    10    98    97    1
    11    98   101    1
    12   102   103   ar
    13   102   101    1
    14   123   122   ar
    15   123   121   ar
    16   122   120   ar
    17   126   124   ar
    18    83    82    2
    19     1     2    1
    20     3     4    2
    21     3     2    1
    22   121   124   ar
    23   121   119   ar
    24   120   119   ar
    25    91    90    2
    26     6     5    1
    27     6     8    1
    28    87    85    1
    29    82    88   am
    30    82    81    1
    31    88    89    1
    32     2     5    1
    33     7     5    1
    34   119   118    1
    35    84    85    1
    36    84    81    1
    37    84    86    1
    38    11    12    2
    39    11    10    1
    40    90    89    1
    41    89    92    1
    42    81    80    1
    43    32    33    2
    44    32    31    1
    45    34    31    1
    46    34    35    1
    47     9    10    1
    48    13    10    1
    49    13    14    1
    50   118   115    1
    51    18    19    1
    52    17    15   am
    53    31    30    1
    54    30    20   am
    55   117   116    2
    56    80    68   am
    57    92    93    1
    58   116   115    1
    59    15    14    1
    60    15    16    2
    61    20    21    2
    62    20    19    1
    63   113   111    1
    64   115   114    1
    65   114   109   am
    66    19    22    1
    67   112   111    1
    68    74    72   ar
    69    74    75   ar
    70    93    94    1
    71   107   108    1
    72    72    71   ar
    73    68    67    1
    74    68    69    2
    75    47    48    1
    76    77    75   ar
    77    77    79   ar
    78    75    73   ar
    79    67    66    1
    80    67    70    1
    81   111   108    1
    82    48    49    1
    83    48    51    1
    84   175   173    1
    85    71    73   ar
    86    71    70    1
    87   108   109    1
    88   109   110    2
    89    79    78   ar
    90    73    76   ar
    91    50    49    2
    92    22    23    1
    93   172   171    2
    94    94    96   am
    95    94    95    2
    96    25    23   ar
    97    25    27   ar
    98    52    51    1
    99    52    53    1
   100    23    24   ar
   101    78    76   ar
   102    27    28   ar
   103    36    37    1
   104    24    26   ar
   105    39    38    2
   106   173   174    1
   107   173   170    1
   108    37    38    1
   109    37    40    1
   110   176   174    1
   111    28    26   ar
   112    28    29    1
   113    54    53    1
   114   171   170    1
   115    45    46   ar
   116    45    43   ar
   117    46    44   ar
   118    43    41   ar
   119   170   169    1
   120    44    42   ar
   121    41    42   ar
   122    41    40    1
   123   135   133    1
   124   167   166    2
   125   157   156    2
   126    65    63   ar
   127    65    64   ar
   128   133   132    1
   129   153   152   ar
   130   153   151   ar
   131   165   168    1
   132   165   166    1
   133   165   164    1
   134    63    61   ar
   135   221   220    1
   136   152   150   ar
   137   156   164   am
   138   156   155    1
   139   142   141    1
   140   182   181    1
   141    64    62   ar
   142   128   129    1
   143   158   155    1
   144   158   159    1
   145   151   149   ar
   146   220   219    1
   147   141   143    1
   148   141   140    1
   149   204   203   ar
   150   204   202   ar
   151   132   129    1
   152   132   134    1
   153   203   201   ar
   154   150   149   ar
   155   155   154    1
   156   131   130    2
   157   149   148    1
   158    61    60   ar
   159   160   159   ar
   160   160   162   ar
   161   129   130    1
   162   159   161   ar
   163   202   200   ar
   164   201   199   ar
   165   181   183    1
   166   181   178    1
   167   219   218    1
   168    62    60   ar
   169   147   146    2
   170   199   200   ar
   171   199   198    1
   172    60    59    1
   173   198   195    1
   174   148   145    1
   175   162   163   ar
   176   140   137    1
   177   161   163   ar
   178   146   145    1
   179    57    58    2
   180    57    56    1
   181   179   178    1
   182   179   180    2
   183   145   144    1
   184   178   177    1
   185   218   215    1
   186   136   137    1
   187   195   194    1
   188   195   196    1
   189   137   138    1
   190    59    56    1
   191    56    55    1
   192   194   186   am
   193   215   214    1
   194   215   216    1
   195   193   191   ar
   196   193   192   ar
   197   191   189   ar
   198   214   207   am
   199   196   197    2
   200   192   190   ar
   201   210   209    1
   202   210   211    1
   203   209   206    1
   204   189   190   ar
   205   189   188    1
   206   138   139    2
   207   188   185    1
   208   186   187    2
   209   186   185    1
   210   216   217    2
   211   207   206    1
   212   207   208    2
   213   185   184    1
   214   206   205    1
   215   213   212    1
   216   211   212    1
