@<TRIPOS>MOLECULE
tmp/2o01A40.pdb
 129 125 0 0 0
SMALL
GASTEIGER

@<TRIPOS>ATOM
      1  N         45.3200   21.8130  -27.7570 N.3    61  LEU61      -0.1245
      2  CA        44.4180   22.0800  -26.5970 C.3    61  LEU61       0.1561
      3  C         45.2040   22.5070  -25.3680 C.2    61  LEU61       0.2260
      4  O         44.7120   23.2850  -24.5590 O.2    61  LEU61      -0.2867
      5  CB        43.5670   20.8520  -26.2310 C.3    61  LEU61       0.0270
      6  CG        42.1260   21.0410  -25.7490 C.3    61  LEU61       0.0019
      7  CD1       41.3500   19.7790  -26.1520 C.3    61  LEU61       0.0001
      8  CD2       41.9930   21.3440  -24.2540 C.3    61  LEU61       0.0001
      9  N         46.8470   32.0370  -20.6380 N.3    69  HIS69      -0.1241
     10  CA        47.1720   32.1310  -19.2240 C.3    69  HIS69       0.1621
     11  C         48.6520   32.5250  -19.0730 C.2    69  HIS69       0.2264
     12  O         49.2790   32.3300  -18.0440 O.2    69  HIS69      -0.2867
     13  CB        46.7910   30.8340  -18.4830 C.3    69  HIS69       0.0745
     14  CG        45.3140   30.6190  -18.3700 C.ar   69  HIS69       0.0817
     15  ND1       44.5570   31.1890  -17.3730 N.ar   69  HIS69      -0.2268
     16  CD2       44.4560   29.9040  -19.1290 C.ar   69  HIS69       0.1154
     17  CE1       43.2950   30.8320  -17.5150 C.ar   69  HIS69       0.1986
     18  NE2       43.2070   30.0570  -18.5790 N.ar   69  HIS69      -0.2212
     19  N         49.4190   32.2530  -13.5490 N.3    91  GLN91      -0.1231
     20  CA        48.0740   32.0460  -13.0260 C.3    91  GLN91       0.1698
     21  C         47.8090   32.9280  -11.8070 C.2    91  GLN91       0.2592
     22  O         48.6550   33.0310  -10.9080 O.2    91  GLN91      -0.2718
     23  CB        47.8560   30.5710  -12.7000 C.3    91  GLN91       0.0381
     24  CG        46.4260   30.1590  -12.4380 C.3    91  GLN91       0.0905
     25  CD        46.3530   28.7140  -12.0060 C.2    91  GLN91       0.2608
     26  OE1       47.2880   28.1900  -11.3690 O.2    91  GLN91      -0.2717
     27  NE2       45.2520   28.0470  -12.3570 N.am   91  GLN91      -0.0878
     28  N         46.6530   33.5910  -11.8330 N.am   92  VAL92      -0.1966
     29  CA        46.0420   34.2230  -10.6630 C.3    92  VAL92       0.1727
     30  C         44.5880   33.7150  -10.5730 C.2    92  VAL92       0.2616
     31  O         43.9190   33.5200  -11.6080 O.2    92  VAL92      -0.2715
     32  CB        46.1900   35.7860  -10.6560 C.3    92  VAL92       0.0290
     33  CG1       46.2320   36.3440  -12.0460 C.3    92  VAL92       0.0023
     34  CG2       45.0980   36.4560   -9.8560 C.3    92  VAL92       0.0023
     35  N         44.1200   33.4920   -9.3370 N.am   93  VAL93      -0.1963
     36  CA        42.9420   32.6380   -9.0380 C.3    93  VAL93       0.1727
     37  C         41.7990   33.3220   -8.2790 C.2    93  VAL93       0.2616
     38  O         42.0600   34.0240   -7.2980 O.2    93  VAL93      -0.2715
     39  CB        43.3800   31.4140   -8.1760 C.3    93  VAL93       0.0290
     40  CG1       44.6080   31.7450   -7.2750 C.3    93  VAL93       0.0023
     41  CG2       42.1960   30.8740   -7.3370 C.3    93  VAL93       0.0023
     42  N         40.5520   33.0800   -8.7080 N.am   94  TRP94      -0.1974
     43  CA        39.3170   33.5560   -8.0260 C.3    94  TRP94       0.1640
     44  C         39.2850   33.4730   -6.4780 C.2    94  TRP94       0.2290
     45  O         39.8790   32.5490   -5.8960 O.2    94  TRP94      -0.2864
     46  CB        38.0990   32.8010   -8.5540 C.3    94  TRP94       0.0576
     47  CG        37.5010   33.3880   -9.7430 C.ar   94  TRP94       0.0006
     48  CD1       37.0660   34.6580   -9.8750 C.ar   94  TRP94       0.0946
     49  CD2       37.2230   32.7300  -10.9870 C.ar   94  TRP94       0.0152
     50  NE1       36.5490   34.8550  -11.1290 N.ar   94  TRP94      -0.2442
     51  CE2       36.6320   33.6880  -11.8370 C.ar   94  TRP94       0.0810
     52  CE3       37.4160   31.4260  -11.4660 C.ar   94  TRP94       0.0012
     53  CZ2       36.2310   33.3960  -13.1370 C.ar   94  TRP94       0.0191
     54  CZ3       37.0180   31.1330  -12.7640 C.ar   94  TRP94       0.0001
     55  CH2       36.4310   32.1180  -13.5840 C.ar   94  TRP94       0.0015
     56  N         37.4640   32.7090   -3.9090 N.3    96  ILE96      -0.1231
     57  CA        36.6870   31.7110   -3.1840 C.3    96  ILE96       0.1692
     58  C         37.3900   31.2720   -1.8870 C.2    96  ILE96       0.2592
     59  O         38.6200   31.1330   -1.8680 O.2    96  ILE96      -0.2718
     60  CB        36.4000   30.5030   -4.1290 C.3    96  ILE96       0.0266
     61  CG1       34.9460   30.0800   -4.0360 C.3    96  ILE96       0.0019
     62  CG2       37.3560   29.3420   -3.8960 C.3    96  ILE96       0.0020
     63  CD1       34.6330   29.2810   -2.8140 C.3    96  ILE96       0.0001
     64  N         36.5960   31.0870   -0.8240 N.am   97  VAL97      -0.1966
     65  CA        37.0020   30.4690    0.4880 C.3    97  VAL97       0.1727
     66  C         38.4360   30.6340    1.0060 C.2    97  VAL97       0.2617
     67  O         38.8730   29.8790    1.8510 O.2    97  VAL97      -0.2715
     68  CB        36.7180   28.9080    0.5610 C.3    97  VAL97       0.0290
     69  CG1       35.2200   28.5600    0.3720 C.3    97  VAL97       0.0023
     70  CG2       37.6440   28.0970   -0.3990 C.3    97  VAL97       0.0023
     71  N         39.1680   31.6180    0.5230 N.am   98  GLY98      -0.1940
     72  CA        40.5910   31.6220    0.7700 C.3    98  GLY98       0.2014
     73  C         41.2800   30.7750   -0.2970 C.2    98  GLY98       0.2638
     74  O         41.9350   29.7850    0.0130 O.2    98  GLY98      -0.2714
     75  N         41.0980   31.1490   -1.5590 N.am   99  GLN99      -0.1977
     76  CA        41.9880   30.7200   -2.6010 C.3    99  GLN99       0.1601
     77  C         43.1580   31.7030   -2.6010 C.2    99  GLN99       0.2287
     78  O         44.2680   31.3430   -2.2520 O.2    99  GLN99      -0.2864
     79  CB        41.2600   30.7550   -3.9400 C.3    99  GLN99       0.0394
     80  CG        40.2210   29.6690   -4.1440 C.3    99  GLN99       0.0908
     81  CD        40.8120   28.2490   -4.2610 C.2    99  GLN99       0.2608
     82  OE1       42.0220   28.0320   -4.1140 O.2    99  GLN99      -0.2717
     83  NE2       39.9440   27.2780   -4.5220 N.am   99  GLN99      -0.0878
     84  N         46.9340   31.9800   -2.6030 N.3   102  LEU102     -0.1245
     85  CA        47.4990   31.0350   -3.5840 C.3   102  LEU102      0.1561
     86  C         48.0340   31.7450   -4.8160 C.2   102  LEU102      0.2260
     87  O         49.0680   31.3360   -5.3450 O.2   102  LEU102     -0.2867
     88  CB        46.4880   29.9640   -4.0070 C.3   102  LEU102      0.0270
     89  CG        46.3250   28.6980   -3.1630 C.3   102  LEU102      0.0019
     90  CD1       45.4110   27.7040   -3.8170 C.3   102  LEU102      0.0001
     91  CD2       47.6540   28.0880   -2.9030 C.3   102  LEU102      0.0001
     92  N         50.1710   33.2880   -8.2120 N.3   113  ILE113     -0.1245
     93  CA        51.0240   32.1530   -7.8970 C.3   113  ILE113      0.1561
     94  C         52.2440   32.1560   -8.8120 C.2   113  ILE113      0.2260
     95  O         52.0810   32.2140  -10.0500 O.2   113  ILE113     -0.2867
     96  CB        50.2490   30.8020   -7.9660 C.3   113  ILE113      0.0252
     97  CG1       51.2060   29.6170   -7.7140 C.3   113  ILE113      0.0019
     98  CG2       49.3860   30.6810   -9.2360 C.3   113  ILE113      0.0019
     99  CD1       51.9490   29.0480   -8.9280 C.3   113  ILE113      0.0001
    100  N         52.0260   27.8040    0.4920 N.3   643  SER643     -0.1202
    101  CA        50.7110   27.2670    0.8250 C.3   643  SER643      0.2020
    102  C         50.0340   26.4610   -0.3190 C.2   643  SER643      0.2618
    103  O         48.9250   26.7720   -0.7890 O.2   643  SER643     -0.2717
    104  CB        49.8200   28.4260    1.2570 C.3   643  SER643      0.2103
    105  OG        48.4790   28.0120    1.4600 O.3   643  SER643     -0.2182
    106  N         50.7360   25.4210   -0.7530 N.am  644  ALA644     -0.1979
    107  CA        50.2140   24.3940   -1.6320 C.3   644  ALA644      0.1597
    108  C         51.1800   23.2340   -1.4300 C.2   644  ALA644      0.2287
    109  O         50.8030   22.0750   -1.3090 O.2   644  ALA644     -0.2864
    110  CB        50.2150   24.8650   -3.0640 C.3   644  ALA644      0.0319
    111  N         50.4350   22.0690    1.3420 N.3   647  LEU647     -0.1231
    112  CA        49.1410   21.3930    1.1210 C.3   647  LEU647      0.1693
    113  C         49.0890   20.1500    0.1820 C.2   647  LEU647      0.2592
    114  O         48.1480   19.3650    0.2540 O.2   647  LEU647     -0.2718
    115  CB        48.0430   22.4020    0.7890 C.3   647  LEU647      0.0284
    116  CG        47.3620   23.0540    2.0040 C.3   647  LEU647      0.0019
    117  CD1       45.9320   23.5750    1.6810 C.3   647  LEU647      0.0001
    118  CD2       47.3140   22.1080    3.2140 C.3   647  LEU647      0.0001
    119  N         50.1030   19.9560   -0.6610 N.am  648  PHE648     -0.1976
    120  CA        50.1800   18.7540   -1.5200 C.3   648  PHE648      0.1639
    121  C         50.6890   17.4510   -0.8850 C.2   648  PHE648      0.2290
    122  O         49.8780   16.5560   -0.5870 O.2   648  PHE648     -0.2864
    123  CB        50.9580   19.0490   -2.7950 C.3   648  PHE648      0.0560
    124  CG        50.1070   19.0820   -4.0070 C.ar  648  PHE648     -0.0200
    125  CD1       50.6460   18.7800   -5.2360 C.ar  648  PHE648     -0.0042
    126  CD2       48.7570   19.4000   -3.9110 C.ar  648  PHE648     -0.0042
    127  CE1       49.8590   18.8060   -6.3650 C.ar  648  PHE648     -0.0003
    128  CE2       47.9500   19.4230   -5.0300 C.ar  648  PHE648     -0.0003
    129  CZ        48.4950   19.1240   -6.2680 C.ar  648  PHE648     -0.0000
@<TRIPOS>BOND
     1     1     2    1
     2     2     5    1
     3     2     3    1
     4     5     6    1
     5     7     6    1
     6     6     8    1
     7     3     4    2
     8     9    10    1
     9    10    11    1
    10    10    13    1
    11    16    18   ar
    12    16    14   ar
    13    11    12    2
    14    18    17   ar
    15    13    14    1
    16    14    15   ar
    17    17    15   ar
    18    55    53   ar
    19    55    54   ar
    20    19    20    1
    21    53    51   ar
    22    20    23    1
    23    20    21    1
    24    54    52   ar
    25    23    24    1
    26    24    25    1
    27    27    25   am
    28    33    32    1
    29    25    26    2
    30    51    50   ar
    31    51    49   ar
    32    28    21   am
    33    28    29    1
    34    21    22    2
    35    31    30    2
    36    52    49   ar
    37    50    48   ar
    38    49    47   ar
    39    29    32    1
    40    29    30    1
    41    32    34    1
    42    30    35   am
    43    95    94    2
    44    48    47   ar
    45    47    46    1
    46    35    36    1
    47    98    96    1
    48    36    37    1
    49    36    39    1
    50    99    97    1
    51    94    93    1
    52    42    37   am
    53    42    43    1
    54    46    43    1
    55    37    38    2
    56    92    93    1
    57    39    41    1
    58    39    40    1
    59    43    44    1
    60    96    93    1
    61    96    97    1
    62    44    45    2
    63   127   129   ar
    64   127   125   ar
    65   129   128   ar
    66    87    86    2
    67   125   124   ar
    68   128   126   ar
    69    86    85    1
    70    83    81   am
    71    81    80    1
    72    81    82    2
    73    80    79    1
    74    60    61    1
    75    60    62    1
    76    60    57    1
    77    61    63    1
    78    88    85    1
    79    88    89    1
    80   124   126   ar
    81   124   123    1
    82    79    76    1
    83    56    57    1
    84    90    89    1
    85    85    84    1
    86    57    58    1
    87    89    91    1
    88   110   107    1
    89   123   120    1
    90    77    76    1
    91    77    78    2
    92    76    75    1
    93    58    59    2
    94    58    64   am
    95   107   108    1
    96   107   106    1
    97    75    73   am
    98   120   121    1
    99   120   119    1
   100   108   109    2
   101   121   122    2
   102    64    65    1
   103   103   102    2
   104   106   102   am
   105   119   113   am
   106    70    68    1
   107   102   101    1
   108    73    74    2
   109    73    72    1
   110   113   114    2
   111   113   112    1
   112    69    68    1
   113    65    68    1
   114    65    66    1
   115   100   101    1
   116    71    72    1
   117    71    66   am
   118   115   112    1
   119   115   116    1
   120   101   104    1
   121    66    67    2
   122   112   111    1
   123   104   105    1
   124   117   116    1
   125   116   118    1
