@<TRIPOS>MOLECULE
tmp/2o01A38.pdb
 100 99 0 0 0
SMALL
GASTEIGER

@<TRIPOS>ATOM
      1  N         45.3200   21.8130  -27.7570 N.3    61  LEU61      -0.1245
      2  CA        44.4180   22.0800  -26.5970 C.3    61  LEU61       0.1561
      3  C         45.2040   22.5070  -25.3680 C.2    61  LEU61       0.2260
      4  O         44.7120   23.2850  -24.5590 O.2    61  LEU61      -0.2867
      5  CB        43.5670   20.8520  -26.2310 C.3    61  LEU61       0.0270
      6  CG        42.1260   21.0410  -25.7490 C.3    61  LEU61       0.0019
      7  CD1       41.3500   19.7790  -26.1520 C.3    61  LEU61       0.0001
      8  CD2       41.9930   21.3440  -24.2540 C.3    61  LEU61       0.0001
      9  N         47.8520   26.2590  -26.4200 N.3    64  SER64      -0.1202
     10  CA        46.7300   27.1680  -26.3240 C.3    64  SER64       0.2020
     11  C         46.1490   26.9650  -24.9380 C.2    64  SER64       0.2619
     12  O         45.1780   26.2240  -24.7460 O.2    64  SER64      -0.2717
     13  CB        45.6790   26.8780  -27.3820 C.3    64  SER64       0.2103
     14  OG        46.0300   27.4650  -28.6200 O.3    64  SER64      -0.2182
     15  N         46.8420   27.5780  -23.9790 N.am   65  GLY65      -0.1942
     16  CA        46.4050   27.8480  -22.6150 C.3    65  GLY65       0.2007
     17  C         47.5770   28.6760  -22.1130 C.2    65  GLY65       0.2564
     18  O         47.4200   29.8140  -21.6540 O.2    65  GLY65      -0.2721
     19  N         48.7650   28.1160  -22.3270 N.am   66  MET66      -0.2345
     20  CA        49.9950   28.5010  -21.6460 C.3    66  MET66       0.1510
     21  C         50.5620   29.8200  -22.1900 C.2    66  MET66       0.2278
     22  O         51.6480   30.2840  -21.7770 O.2    66  MET66      -0.2864
     23  CB        50.9740   27.3200  -21.7170 C.3    66  MET66       0.0412
     24  CG        50.2470   25.9640  -21.6820 C.3    66  MET66       0.0686
     25  SD        48.6140   26.1050  -22.5130 S.3    66  MET66      -0.1013
     26  CE        47.4760   25.2230  -21.4080 C.3    66  MET66       0.0787
     27  N         47.4840   32.0640  -23.1590 N.3    68  PHE68      -0.1227
     28  CA        46.2700   32.8150  -22.8040 C.3    68  PHE68       0.1736
     29  C         46.3850   33.0700  -21.3350 C.2    68  PHE68       0.2595
     30  O         46.0800   34.1570  -20.8480 O.2    68  PHE68      -0.2718
     31  CB        44.9780   32.0330  -23.0800 C.3    68  PHE68       0.0547
     32  CG        43.8440   32.8820  -23.6530 C.ar   68  PHE68      -0.0202
     33  CD1       43.0190   32.3790  -24.6600 C.ar   68  PHE68      -0.0042
     34  CD2       43.6110   34.1710  -23.2090 C.ar   68  PHE68      -0.0042
     35  CE1       41.9740   33.1410  -25.2040 C.ar   68  PHE68      -0.0003
     36  CE2       42.5660   34.9450  -23.7730 C.ar   68  PHE68      -0.0003
     37  CZ        41.7510   34.4230  -24.7680 C.ar   68  PHE68      -0.0000
     38  N         46.8470   32.0370  -20.6380 N.am   69  HIS69      -0.1975
     39  CA        47.1720   32.1310  -19.2240 C.3    69  HIS69       0.1656
     40  C         48.6520   32.5250  -19.0730 C.2    69  HIS69       0.2291
     41  O         49.2790   32.3300  -18.0440 O.2    69  HIS69      -0.2864
     42  CB        46.7910   30.8340  -18.4830 C.3    69  HIS69       0.0771
     43  CG        45.3140   30.6190  -18.3700 C.ar   69  HIS69       0.0820
     44  ND1       44.5570   31.1890  -17.3730 N.ar   69  HIS69      -0.2267
     45  CD2       44.4560   29.9040  -19.1290 C.ar   69  HIS69       0.1154
     46  CE1       43.2950   30.8320  -17.5150 C.ar   69  HIS69       0.1986
     47  NE2       43.2070   30.0570  -18.5790 N.ar   69  HIS69      -0.2212
     48  N         46.9350   36.7730  -20.7990 N.3    72  ARG72      -0.1231
     49  CA        45.7510   37.4290  -20.2390 C.3    72  ARG72       0.1694
     50  C         46.1030   38.0800  -18.8820 C.2    72  ARG72       0.2592
     51  O         45.3730   38.9520  -18.3850 O.2    72  ARG72      -0.2718
     52  CB        44.5670   36.4580  -20.1260 C.3    72  ARG72       0.0321
     53  CG        43.2080   37.0960  -19.8130 C.3    72  ARG72       0.0489
     54  CD        42.4490   37.4530  -21.0790 C.3    72  ARG72       0.2205
     55  NE        41.0060   37.4970  -20.8540 N.pl3  72  ARG72      -0.0865
     56  CZ        40.3100   38.5910  -20.5360 C.cat  72  ARG72       0.5346
     57  NH1       40.9040   39.7880  -20.4070 N.pl3  72  ARG72       0.1354
     58  NH2       38.9980   38.4830  -20.3360 N.pl3  72  ARG72       0.1354
     59  N         47.2230   37.6600  -18.2940 N.am   73  PHE73      -0.1976
     60  CA        47.6710   38.1860  -17.0040 C.3    73  PHE73       0.1639
     61  C         49.1780   37.9900  -16.8390 C.2    73  PHE73       0.2290
     62  O         49.6450   37.0430  -16.1760 O.2    73  PHE73      -0.2864
     63  CB        46.8760   37.5740  -15.8310 C.3    73  PHE73       0.0560
     64  CG        46.1660   36.2900  -16.1770 C.ar   73  PHE73      -0.0200
     65  CD1       46.8690   35.0870  -16.2870 C.ar   73  PHE73      -0.0042
     66  CD2       44.7860   36.2860  -16.3980 C.ar   73  PHE73      -0.0042
     67  CE1       46.2030   33.9160  -16.6230 C.ar   73  PHE73      -0.0003
     68  CE2       44.1150   35.1250  -16.7270 C.ar   73  PHE73      -0.0003
     69  CZ        44.8260   33.9450  -16.8490 C.ar   73  PHE73      -0.0000
     70  N         49.4190   32.2530  -13.5490 N.3    91  GLN91      -0.1245
     71  CA        48.0740   32.0460  -13.0260 C.3    91  GLN91       0.1566
     72  C         47.8090   32.9280  -11.8070 C.2    91  GLN91       0.2260
     73  O         48.6550   33.0310  -10.9080 O.2    91  GLN91      -0.2867
     74  CB        47.8560   30.5710  -12.7000 C.3    91  GLN91       0.0367
     75  CG        46.4260   30.1590  -12.4380 C.3    91  GLN91       0.0905
     76  CD        46.3530   28.7140  -12.0060 C.2    91  GLN91       0.2608
     77  OE1       47.2880   28.1900  -11.3690 O.2    91  GLN91      -0.2717
     78  NE2       45.2520   28.0470  -12.3570 N.am   91  GLN91      -0.0878
     79  N         40.5520   33.0800   -8.7080 N.3    94  TRP94      -0.1241
     80  CA        39.3170   33.5560   -8.0260 C.3    94  TRP94       0.1605
     81  C         39.2850   33.4730   -6.4780 C.2    94  TRP94       0.2264
     82  O         39.8790   32.5490   -5.8960 O.2    94  TRP94      -0.2867
     83  CB        38.0990   32.8010   -8.5540 C.3    94  TRP94       0.0550
     84  CG        37.5010   33.3880   -9.7430 C.ar   94  TRP94       0.0003
     85  CD1       37.0660   34.6580   -9.8750 C.ar   94  TRP94       0.0946
     86  CD2       37.2230   32.7300  -10.9870 C.ar   94  TRP94       0.0152
     87  NE1       36.5490   34.8550  -11.1290 N.ar   94  TRP94      -0.2442
     88  CE2       36.6320   33.6880  -11.8370 C.ar   94  TRP94       0.0810
     89  CE3       37.4160   31.4260  -11.4660 C.ar   94  TRP94       0.0012
     90  CZ2       36.2310   33.3960  -13.1370 C.ar   94  TRP94       0.0191
     91  CZ3       37.0180   31.1330  -12.7640 C.ar   94  TRP94       0.0001
     92  CH2       36.4310   32.1180  -13.5840 C.ar   94  TRP94       0.0015
     93  N         44.4240   27.3970  -31.3290 N.3   142  LEU142     -0.1245
     94  CA        43.2510   26.7190  -30.7300 C.3   142  LEU142      0.1561
     95  C         42.2500   26.1440  -31.7560 C.2   142  LEU142      0.2260
     96  O         41.8800   24.9690  -31.6640 O.2   142  LEU142     -0.2867
     97  CB        42.5380   27.5930  -29.6730 C.3   142  LEU142      0.0270
     98  CG        41.1190   27.1340  -29.2700 C.3   142  LEU142      0.0019
     99  CD1       41.1260   26.2220  -28.0220 C.3   142  LEU142      0.0001
    100  CD2       40.1340   28.3090  -29.1220 C.3   142  LEU142      0.0001
@<TRIPOS>BOND
     1    95    96    2
     2    95    94    1
     3    93    94    1
     4    94    97    1
     5    97    98    1
     6    98   100    1
     7    98    99    1
     8    14    13    1
     9     1     2    1
    10    13    10    1
    11     2     5    1
    12     2     3    1
    13     9    10    1
    14    10    11    1
    15     5     6    1
    16     7     6    1
    17     6     8    1
    18     3     4    2
    19    35    37   ar
    20    35    33   ar
    21    11    12    2
    22    11    15   am
    23    37    36   ar
    24    33    32   ar
    25    15    16    1
    26    36    34   ar
    27    32    34   ar
    28    32    31    1
    29    27    28    1
    30    31    28    1
    31    28    29    1
    32    16    17    1
    33    25    19    1
    34    25    24    1
    35    25    26    1
    36    19    17   am
    37    19    20    1
    38    21    22    2
    39    21    20    1
    40    17    18    2
    41    23    24    1
    42    23    20    1
    43    29    30    2
    44    29    38   am
    45    54    55    1
    46    54    53    1
    47    55    56    2
    48    48    49    1
    49    38    39    1
    50    56    57    1
    51    56    58    1
    52    49    52    1
    53    49    50    1
    54    52    53    1
    55    39    40    1
    56    39    42    1
    57    45    47   ar
    58    45    43   ar
    59    40    41    2
    60    50    51    2
    61    50    59   am
    62    47    46   ar
    63    42    43    1
    64    43    44   ar
    65    59    60    1
    66    46    44   ar
    67    60    61    1
    68    60    63    1
    69    69    68   ar
    70    69    67   ar
    71    61    62    2
    72    68    66   ar
    73    67    65   ar
    74    66    64   ar
    75    65    64   ar
    76    64    63    1
    77    92    90   ar
    78    92    91   ar
    79    70    71    1
    80    90    88   ar
    81    71    74    1
    82    71    72    1
    83    91    89   ar
    84    74    75    1
    85    75    76    1
    86    78    76   am
    87    76    77    2
    88    88    87   ar
    89    88    86   ar
    90    72    73    2
    91    89    86   ar
    92    87    85   ar
    93    86    84   ar
    94    85    84   ar
    95    84    83    1
    96    79    80    1
    97    83    80    1
    98    80    81    1
    99    81    82    2
