@<TRIPOS>MOLECULE
tmp/2o01L03.pdb
 112 111 0 0 0
SMALL
GASTEIGER

@<TRIPOS>ATOM
      1  N         93.6710  -24.4070  -22.3460 N.3    31  TRP31      -0.1227
      2  CA        94.8790  -24.9120  -21.6660 C.3    31  TRP31       0.1737
      3  C         95.0020  -24.6190  -20.1420 C.2    31  TRP31       0.2595
      4  O         95.4710  -25.4740  -19.3540 O.2    31  TRP31      -0.2718
      5  CB        96.1090  -24.3790  -22.4150 C.3    31  TRP31       0.0564
      6  CG        97.3810  -25.0660  -22.0960 C.ar   31  TRP31       0.0003
      7  CD1       97.7750  -26.2800  -22.5470 C.ar   31  TRP31       0.0946
      8  CD2       98.4470  -24.5720  -21.2710 C.ar   31  TRP31       0.0152
      9  NE1       99.0140  -26.5940  -22.0500 N.ar   31  TRP31      -0.2442
     10  CE2       99.4570  -25.5580  -21.2700 C.ar   31  TRP31       0.0810
     11  CE3       98.6460  -23.3930  -20.5310 C.ar   31  TRP31       0.0012
     12  CZ2      100.6630  -25.4040  -20.5540 C.ar   31  TRP31       0.0191
     13  CZ3       99.8340  -23.2370  -19.8220 C.ar   31  TRP31       0.0001
     14  CH2      100.8300  -24.2410  -19.8420 C.ar   31  TRP31       0.0015
     15  N         94.6030  -23.4050  -19.7560 N.am   32  TYR32      -0.1976
     16  CA        94.4210  -23.0440  -18.3590 C.3    32  TYR32       0.1639
     17  C         93.6300  -24.1500  -17.6860 C.2    32  TYR32       0.2290
     18  O         94.1980  -25.1130  -17.1680 O.2    32  TYR32      -0.2864
     19  CB        93.6340  -21.7360  -18.2540 C.3    32  TYR32       0.0560
     20  CG        94.4080  -20.5860  -17.6990 C.ar   32  TYR32      -0.0198
     21  CD1       94.4490  -20.3580  -16.3170 C.ar   32  TYR32      -0.0009
     22  CD2       95.0870  -19.7140  -18.5490 C.ar   32  TYR32      -0.0009
     23  CE1       95.1640  -19.2950  -15.7860 C.ar   32  TYR32       0.0417
     24  CE2       95.8120  -18.6460  -18.0400 C.ar   32  TYR32       0.0417
     25  CZ        95.8520  -18.4380  -16.6550 C.ar   32  TYR32       0.1957
     26  OH        96.5840  -17.3730  -16.1650 O.3    32  TYR32      -0.2866
     27  N         95.4080  -27.3290  -15.8850 N.3    35  ASN35      -0.1225
     28  CA        96.6100  -27.7040  -15.0890 C.3    35  ASN35       0.1785
     29  C         96.6600  -27.2690  -13.6100 C.2    35  ASN35       0.2597
     30  O         97.4310  -27.8070  -12.7970 O.2    35  ASN35      -0.2718
     31  CB        97.9340  -27.4450  -15.8160 C.3    35  ASN35       0.1169
     32  CG        98.9720  -28.5190  -15.5020 C.2    35  ASN35       0.2627
     33  OD1       99.2240  -28.8350  -14.3270 O.2    35  ASN35      -0.2716
     34  ND2       99.5580  -29.1060  -16.5480 N.am   35  ASN35      -0.0877
     35  N         95.8540  -26.2670  -13.2930 N.am   36  LEU36      -0.1980
     36  CA        95.2940  -26.1400  -11.9670 C.3    36  LEU36       0.1596
     37  C         94.1120  -27.1230  -11.9960 C.2    36  LEU36       0.2287
     38  O         93.5220  -27.3260  -13.0530 O.2    36  LEU36      -0.2864
     39  CB        94.8290  -24.6950  -11.7090 C.3    36  LEU36       0.0297
     40  CG        94.4940  -23.8050  -12.9130 C.3    36  LEU36       0.0022
     41  CD1       93.2170  -23.0360  -12.7050 C.3    36  LEU36       0.0001
     42  CD2       95.6390  -22.8870  -13.2530 C.3    36  LEU36       0.0001
     43  N         98.8070  -32.2140   -4.1030 N.3    47  LEU47      -0.1245
     44  CA        99.4700  -31.6280   -5.2670 C.3    47  LEU47       0.1561
     45  C         98.5090  -31.1920   -6.4150 C.2    47  LEU47       0.2260
     46  O         98.9450  -30.9640   -7.5550 O.2    47  LEU47      -0.2867
     47  CB       100.6320  -32.5150   -5.7650 C.3    47  LEU47       0.0270
     48  CG       101.5570  -32.0650   -6.9280 C.3    47  LEU47       0.0019
     49  CD1      100.9790  -32.4400   -8.3180 C.3    47  LEU47       0.0001
     50  CD2      102.0070  -30.5750   -6.9060 C.3    47  LEU47       0.0001
     51  N         97.0480  -27.8890   -2.7920 N.3    50  VAL50      -0.1231
     52  CA        98.1110  -27.2940   -2.0090 C.3    50  VAL50       0.1692
     53  C         98.6380  -26.1850   -2.9230 C.2    50  VAL50       0.2591
     54  O         99.2570  -25.2350   -2.4600 O.2    50  VAL50      -0.2718
     55  CB        99.2110  -28.2930   -1.6220 C.3    50  VAL50       0.0266
     56  CG1      100.0490  -28.6650   -2.8410 C.3    50  VAL50       0.0020
     57  CG2      100.0970  -27.7140   -0.5230 C.3    50  VAL50       0.0020
     58  N         98.3510  -26.3000   -4.2220 N.am   51  GLU51      -0.1979
     59  CA        98.6000  -25.1870   -5.1310 C.3    51  GLU51       0.1602
     60  C         97.6170  -24.0500   -4.8760 C.2    51  GLU51       0.2287
     61  O         98.0490  -22.8890   -4.8250 O.2    51  GLU51      -0.2864
     62  CB        98.6770  -25.5940   -6.6270 C.3    51  GLU51       0.0415
     63  CG        97.3660  -25.5920   -7.4140 C.3    51  GLU51       0.1163
     64  CD        97.4950  -25.0210   -8.8310 C.2    51  GLU51       0.3649
     65  OE1       98.6270  -24.8970   -9.3790 O.co2  51  GLU51      -0.2457
     66  OE2       96.4310  -24.6820   -9.3900 O.co2  51  GLU51      -0.2457
     67  N         98.6480  -22.5820   -1.4310 N.3    54  LEU54      -0.1231
     68  CA        99.8830  -21.8960   -1.7320 C.3    54  LEU54       0.1693
     69  C         99.6270  -20.5230   -2.3840 C.2    54  LEU54       0.2591
     70  O        100.1420  -19.4880   -1.9040 O.2    54  LEU54      -0.2718
     71  CB       100.7050  -22.7750   -2.6550 C.3    54  LEU54       0.0284
     72  CG       102.1470  -23.0750   -2.2650 C.3    54  LEU54       0.0019
     73  CD1      102.9810  -21.8700   -2.5100 C.3    54  LEU54       0.0001
     74  CD2      102.3330  -23.5600   -0.8380 C.3    54  LEU54       0.0001
     75  N         98.8190  -20.5300   -3.4610 N.am   55  ALA55      -0.1980
     76  CA        98.4590  -19.3300   -4.2320 C.3    55  ALA55       0.1597
     77  C         97.4280  -18.4730   -3.5360 C.2    55  ALA55       0.2287
     78  O         97.5580  -17.2280   -3.5250 O.2    55  ALA55      -0.2864
     79  CB        97.9460  -19.7150   -5.5630 C.3    55  ALA55       0.0319
     80  N         98.3060  -15.5610    0.0530 N.3    58  PHE58      -0.1227
     81  CA        98.9060  -14.2210   -0.2590 C.3    58  PHE58       0.1736
     82  C         98.0700  -13.3130   -1.1650 C.2    58  PHE58       0.2595
     83  O         98.1820  -12.0860   -1.1090 O.2    58  PHE58      -0.2718
     84  CB       100.3490  -14.3380   -0.8090 C.3    58  PHE58       0.0547
     85  CG       100.4810  -15.1080   -2.1230 C.ar   58  PHE58      -0.0202
     86  CD1      100.7340  -14.4200   -3.3300 C.ar   58  PHE58      -0.0042
     87  CD2      100.4360  -16.5220   -2.1380 C.ar   58  PHE58      -0.0042
     88  CE1      100.9050  -15.1230   -4.5400 C.ar   58  PHE58      -0.0003
     89  CE2      100.6020  -17.2290   -3.3290 C.ar   58  PHE58      -0.0003
     90  CZ       100.8360  -16.5300   -4.5430 C.ar   58  PHE58      -0.0000
     91  N         97.2290  -13.9460   -1.9780 N.am   59  LEU59      -0.1980
     92  CA        96.2060  -13.2820   -2.7740 C.3    59  LEU59       0.1596
     93  C         95.3820  -12.2460   -2.0050 C.2    59  LEU59       0.2287
     94  O         94.6730  -11.4560   -2.6150 O.2    59  LEU59      -0.2864
     95  CB        95.2910  -14.3610   -3.3580 C.3    59  LEU59       0.0297
     96  CG        94.5510  -14.2370   -4.6910 C.3    59  LEU59       0.0022
     97  CD1       94.0450  -15.6200   -5.0170 C.3    59  LEU59       0.0001
     98  CD2       93.3860  -13.2570   -4.6510 C.3    59  LEU59       0.0001
     99  N        104.3870  -16.7540    3.5280 N.3   149  TRP149     -0.1241
    100  CA       105.5350  -16.6110    2.6450 C.3   149  TRP149      0.1605
    101  C        105.6060  -15.1740    2.0600 C.2   149  TRP149      0.2264
    102  O        106.6990  -14.6620    1.7340 O.2   149  TRP149     -0.2867
    103  CB       105.6570  -17.8290    1.6860 C.3   149  TRP149      0.0550
    104  CG       105.7800  -17.5910    0.2120 C.ar  149  TRP149      0.0003
    105  CD1      106.7280  -16.8520   -0.4340 C.ar  149  TRP149      0.0946
    106  CD2      104.9410  -18.1480   -0.8130 C.ar  149  TRP149      0.0152
    107  NE1      106.5000  -16.8680   -1.7920 N.ar  149  TRP149     -0.2442
    108  CE2      105.4170  -17.6600   -2.0550 C.ar  149  TRP149      0.0810
    109  CE3      103.8150  -18.9890   -0.8010 C.ar  149  TRP149      0.0012
    110  CZ2      104.8120  -17.9820   -3.2760 C.ar  149  TRP149      0.0191
    111  CZ3      103.2040  -19.2980   -2.0170 C.ar  149  TRP149      0.0001
    112  CH2      103.7140  -18.8000   -3.2390 C.ar  149  TRP149      0.0015
@<TRIPOS>BOND
     1     7     6   ar
     2     7     9   ar
     3     5     6    1
     4     5     2    1
     5     1     2    1
     6     6     8   ar
     7     9    10   ar
     8     2     3    1
     9     8    10   ar
    10     8    11   ar
    11    10    12   ar
    12    12    14   ar
    13    11    13   ar
    14     3    15   am
    15     3     4    2
    16    14    13   ar
    17    15    16    1
    18    22    24   ar
    19    22    20   ar
    20    16    19    1
    21    16    17    1
    22    19    20    1
    23    24    25   ar
    24    20    21   ar
    25    17    18    2
    26    25    26    1
    27    25    23   ar
    28    34    32   am
    29    21    23   ar
    30    27    28    1
    31    31    32    1
    32    31    28    1
    33    32    33    2
    34    28    29    1
    35    29    35   am
    36    29    30    2
    37    35    36    1
    38    42    40    1
    39    38    37    2
    40    40    41    1
    41    40    39    1
    42    37    36    1
    43    36    39    1
    44    66    64   ar
    45    65    64   ar
    46    64    63    1
    47    49    48    1
    48    46    45    2
    49    63    62    1
    50    48    50    1
    51    48    47    1
    52    62    59    1
    53    45    44    1
    54    47    44    1
    55    79    76    1
    56    44    43    1
    57    59    60    1
    58    59    58    1
    59    97    96    1
    60    60    61    2
    61    96    98    1
    62    96    95    1
    63    90    88   ar
    64    90    89   ar
    65    88    86   ar
    66    76    77    1
    67    76    75    1
    68    58    53   am
    69    77    78    2
    70    75    69   am
    71    95    92    1
    72    86    85   ar
    73    89    87   ar
    74   110   112   ar
    75   110   108   ar
    76   112   111   ar
    77    53    54    2
    78    53    52    1
    79    56    55    1
    80    51    52    1
    81    92    93    1
    82    92    91    1
    83    71    72    1
    84    71    68    1
    85    94    93    2
    86    73    72    1
    87    69    70    2
    88    69    68    1
    89    72    74    1
    90    87    85   ar
    91    85    84    1
    92   108   107   ar
    93   108   106   ar
    94   111   109   ar
    95    52    55    1
    96    91    82   am
    97   107   105   ar
    98    68    67    1
    99    55    57    1
   100    82    83    2
   101    82    81    1
   102   106   109   ar
   103   106   104   ar
   104    84    81    1
   105   105   104   ar
   106    81    80    1
   107   104   103    1
   108   103   100    1
   109   102   101    2
   110   101   100    1
   111   100    99    1
