@<TRIPOS>MOLECULE
tmp/2o01B10.pdb
 144 143 0 0 0
SMALL
GASTEIGER

@<TRIPOS>ATOM
      1  N         46.8860    3.5580   54.5360 N.3   256  ILE256     -0.1245
      2  CA        45.9870    3.6980   53.3900 C.3   256  ILE256      0.1561
      3  C         45.0970    5.0020   53.3790 C.2   256  ILE256      0.2260
      4  O         43.8430    4.9550   53.3030 O.2   256  ILE256     -0.2867
      5  CB        45.2440    2.3540   53.0870 C.3   256  ILE256      0.0252
      6  CG1       44.3770    2.4570   51.8190 C.3   256  ILE256      0.0019
      7  CG2       44.5030    1.8420   54.3280 C.3   256  ILE256      0.0019
      8  CD1       45.1620    2.7790   50.5310 C.3   256  ILE256      0.0001
      9  N         53.7390    7.1570   44.7680 N.3   267  LEU267     -0.1245
     10  CA        52.9100    6.3750   45.7330 C.3   267  LEU267      0.1561
     11  C         53.6460    5.8690   46.9680 C.2   267  LEU267      0.2260
     12  O         54.3260    4.8430   46.8810 O.2   267  LEU267     -0.2867
     13  CB        52.2750    5.1770   45.0110 C.3   267  LEU267      0.0270
     14  CG        50.8150    5.1070   44.5230 C.3   267  LEU267      0.0019
     15  CD1       50.1540    3.9060   45.1640 C.3   267  LEU267      0.0001
     16  CD2       49.9340    6.4000   44.6680 C.3   267  LEU267      0.0001
     17  N         51.8260    1.9840   51.9860 N.3   271  ASP271     -0.1225
     18  CA        50.4330    2.3740   51.8240 C.3   271  ASP271      0.1805
     19  C         49.8840    1.7340   50.5590 C.2   271  ASP271      0.2597
     20  O         48.8250    2.1070   50.0450 O.2   271  ASP271     -0.2718
     21  CB        50.2430    3.8850   51.8080 C.3   271  ASP271      0.1424
     22  CG        48.8150    4.2910   52.1570 C.2   271  ASP271      0.3668
     23  OD1       47.8950    3.5390   51.7760 O.co2 271  ASP271     -0.2456
     24  OD2       48.5970    5.3350   52.8260 O.co2 271  ASP271     -0.2456
     25  N         50.6300    0.7630   50.0530 N.am  272  VAL272     -0.1980
     26  CA        50.0970   -0.2270   49.1180 C.3   272  VAL272      0.1595
     27  C         50.4570   -1.5910   49.7210 C.2   272  VAL272      0.2287
     28  O         50.3740   -2.6310   49.0720 O.2   272  VAL272     -0.2864
     29  CB        50.6150   -0.0090   47.6450 C.3   272  VAL272      0.0276
     30  CG1       50.2890   -1.1820   46.7640 C.3   272  VAL272      0.0022
     31  CG2       49.9990    1.2370   47.0220 C.3   272  VAL272      0.0022
     32  N         48.8660   -2.3620   52.5860 N.3   274  HIS274     -0.1226
     33  CA        47.4810   -2.6970   52.8910 C.3   274  HIS274      0.1752
     34  C         46.7940   -3.1470   51.5960 C.2   274  HIS274      0.2596
     35  O         45.9930   -4.0690   51.6330 O.2   274  HIS274     -0.2718
     36  CB        46.8130   -1.4630   53.5100 C.3   274  HIS274      0.0759
     37  CG        45.3370   -1.5800   53.7470 C.ar  274  HIS274      0.0818
     38  ND1       44.4130   -1.6100   52.7240 N.ar  274  HIS274     -0.2268
     39  CD2       44.6210   -1.5800   54.8980 C.ar  274  HIS274      0.1154
     40  CE1       43.1960   -1.6670   53.2340 C.ar  274  HIS274      0.1986
     41  NE2       43.2940   -1.6500   54.5520 N.ar  274  HIS274     -0.2212
     42  N         47.1350   -2.5190   50.4590 N.am  275  HIS275     -0.1975
     43  CA        46.5860   -2.9230   49.1400 C.3   275  HIS275      0.1656
     44  C         46.8490   -4.3690   48.8210 C.2   275  HIS275      0.2291
     45  O         45.9080   -5.1360   48.5760 O.2   275  HIS275     -0.2864
     46  CB        47.1390   -2.1180   47.9730 C.3   275  HIS275      0.0771
     47  CG        47.0420   -2.8470   46.6670 C.ar  275  HIS275      0.0820
     48  ND1       47.5930   -4.1000   46.4720 N.ar  275  HIS275     -0.2267
     49  CD2       46.4530   -2.5140   45.4960 C.ar  275  HIS275      0.1154
     50  CE1       47.3490   -4.5060   45.2410 C.ar  275  HIS275      0.1986
     51  NE2       46.6650   -3.5590   44.6240 N.ar  275  HIS275     -0.2212
     52  N         44.6890   -7.1660   50.7490 N.3   278  ALA278     -0.1231
     53  CA        43.2460   -7.0080   50.6700 C.3   278  ALA278      0.1694
     54  C         42.7420   -7.7600   49.4440 C.2   278  ALA278      0.2591
     55  O         41.8450   -8.6190   49.5510 O.2   278  ALA278     -0.2718
     56  CB        42.8540   -5.5370   50.6110 C.3   278  ALA278      0.0304
     57  N         43.3340   -7.4540   48.2840 N.am  279  ILE279     -0.1980
     58  CA        42.9360   -8.0880   47.0200 C.3   279  ILE279      0.1595
     59  C         42.5930   -9.5380   47.2770 C.2   279  ILE279      0.2287
     60  O         41.4960   -9.9660   46.9840 O.2   279  ILE279     -0.2864
     61  CB        43.9850   -7.9150   45.8760 C.3   279  ILE279      0.0276
     62  CG1       45.3810   -8.4020   46.2840 C.3   279  ILE279      0.0022
     63  CG2       44.0720   -6.4570   45.4730 C.3   279  ILE279      0.0022
     64  CD1       46.2880   -8.7150   45.1280 C.3   279  ILE279      0.0001
     65  N         39.3400  -11.0750   48.0470 N.3   282  LEU282     -0.1231
     66  CA        38.7380  -11.0740   46.7210 C.3   282  LEU282      0.1693
     67  C         39.4910  -12.0030   45.7310 C.2   282  LEU282      0.2592
     68  O         39.9900  -11.5710   44.6860 O.2   282  LEU282     -0.2718
     69  CB        38.5040   -9.6490   46.1960 C.3   282  LEU282      0.0284
     70  CG        37.0120   -9.3270   45.9640 C.3   282  LEU282      0.0019
     71  CD1       36.0660  -10.0450   46.9770 C.3   282  LEU282      0.0001
     72  CD2       36.7080   -7.7880   45.8450 C.3   282  LEU282      0.0001
     73  N         39.6490  -13.2500   46.1690 N.am  283  PHE283     -0.1976
     74  CA        39.5320  -14.4580   45.3590 C.3   283  PHE283      0.1639
     75  C         39.2930  -15.5070   46.4220 C.2   283  PHE283      0.2290
     76  O         38.4660  -16.3760   46.2460 O.2   283  PHE283     -0.2864
     77  CB        40.7720  -14.8230   44.5370 C.3   283  PHE283      0.0560
     78  CG        41.2100  -13.7660   43.5740 C.ar  283  PHE283     -0.0200
     79  CD1       40.2990  -13.1140   42.7750 C.ar  283  PHE283     -0.0042
     80  CD2       42.5650  -13.4350   43.4640 C.ar  283  PHE283     -0.0042
     81  CE1       40.7180  -12.1220   41.9070 C.ar  283  PHE283     -0.0003
     82  CE2       43.0030  -12.4580   42.5890 C.ar  283  PHE283     -0.0003
     83  CZ        42.0750  -11.7950   41.8060 C.ar  283  PHE283     -0.0000
     84  N         48.0240    3.2280   34.7970 N.3   350  HIS350     -0.1226
     85  CA        48.3510    2.8150   36.1550 C.3   350  HIS350      0.1752
     86  C         49.7400    2.2040   35.9140 C.2   350  HIS350      0.2595
     87  O         49.9300    1.4600   34.9550 O.2   350  HIS350     -0.2718
     88  CB        47.3630    1.8000   36.7650 C.3   350  HIS350      0.0759
     89  CG        45.9750    1.8120   36.1610 C.ar  350  HIS350      0.0818
     90  ND1       45.0510    0.8100   36.4120 N.ar  350  HIS350     -0.2268
     91  CD2       45.3630    2.6720   35.3050 C.ar  350  HIS350      0.1154
     92  CE1       43.9350    1.0550   35.7440 C.ar  350  HIS350      0.1986
     93  NE2       44.0960    2.1790   35.0680 N.ar  350  HIS350     -0.2212
     94  N         50.7220    2.5770   36.7240 N.am  351  MET351     -0.1979
     95  CA        52.1360    2.3600   36.4090 C.3   351  MET351      0.1605
     96  C         52.7590    3.7230   36.0370 C.2   351  MET351      0.2287
     97  O         53.9110    4.0190   36.3930 O.2   351  MET351     -0.2864
     98  CB        52.3210    1.3460   35.2740 C.3   351  MET351      0.0413
     99  CG        53.4270    0.3440   35.4900 C.3   351  MET351      0.0598
    100  SD        54.9210    0.9580   36.3470 S.3   351  MET351     -0.1393
    101  CE        56.0960    1.1790   35.0080 C.3   351  MET351      0.0692
    102  N         49.7250    7.2330   38.1720 N.3   354  LEU354     -0.1231
    103  CA        50.4240    7.3410   39.4350 C.3   354  LEU354      0.1678
    104  C         51.4920    6.2220   39.4680 C.2   354  LEU354      0.2434
    105  O         51.1690    5.0070   39.4220 O.2   354  LEU354     -0.2733
    106  CB        49.4600    7.3120   40.6380 C.3   354  LEU354      0.0284
    107  CG        48.3980    6.2150   40.8560 C.3   354  LEU354      0.0019
    108  CD1       47.3340    6.1810   39.7250 C.3   354  LEU354      0.0001
    109  CD2       48.9970    4.8140   41.1240 C.3   354  LEU354      0.0001
    110  N         52.7690    6.6320   39.5550 N.am  355  PRO355     -0.2729
    111  CA        53.9670    5.8090   39.4210 C.3   355  PRO355      0.1401
    112  C         53.9480    4.5770   40.3210 C.2   355  PRO355      0.2269
    113  O         52.9080    3.8560   40.4070 O.2   355  PRO355     -0.2865
    114  CB        55.0730    6.7550   39.8970 C.3   355  PRO355      0.0296
    115  CG        54.3480    7.8070   40.6730 C.3   355  PRO355      0.0237
    116  CD        53.1280    8.0100   39.8970 C.3   355  PRO355      0.0939
    117  N         39.8250    8.0580   51.4620 N.3   492  TRP492     -0.1241
    118  CA        40.3040    8.0740   50.0750 C.3   492  TRP492      0.1605
    119  C         40.3720    9.4740   49.4590 C.2   492  TRP492      0.2264
    120  O         41.0720    9.6630   48.4570 O.2   492  TRP492     -0.2867
    121  CB        39.4940    7.1170   49.1660 C.3   492  TRP492      0.0550
    122  CG        38.4810    6.2540   49.8940 C.ar  492  TRP492      0.0003
    123  CD1       37.1190    6.3210   49.7910 C.ar  492  TRP492      0.0946
    124  CD2       38.7590    5.2210   50.8440 C.ar  492  TRP492      0.0152
    125  NE1       36.5380    5.3900   50.6050 N.ar  492  TRP492     -0.2442
    126  CE2       37.5190    4.7030   51.2680 C.ar  492  TRP492      0.0810
    127  CE3       39.9390    4.6820   51.3790 C.ar  492  TRP492      0.0012
    128  CZ2       37.4220    3.6750   52.2080 C.ar  492  TRP492      0.0191
    129  CZ3       39.8440    3.6570   52.3070 C.ar  492  TRP492      0.0001
    130  CH2       38.5920    3.1660   52.7120 C.ar  492  TRP492      0.0015
    131  N         44.3290   11.9500   47.1480 N.3   496  TRP496     -0.1241
    132  CA        44.0660   11.8290   45.7230 C.3   496  TRP496      0.1605
    133  C         43.4080   13.0900   45.1530 C.2   496  TRP496      0.2264
    134  O         43.0960   13.1510   43.9680 O.2   496  TRP496     -0.2867
    135  CB        43.2450   10.5690   45.4310 C.3   496  TRP496      0.0550
    136  CG        44.0720    9.4640   44.8230 C.ar  496  TRP496      0.0003
    137  CD1       44.5610    9.4220   43.5500 C.ar  496  TRP496      0.0946
    138  CD2       44.4990    8.2530   45.4550 C.ar  496  TRP496      0.0152
    139  NE1       45.2670    8.2700   43.3510 N.ar  496  TRP496     -0.2442
    140  CE2       45.2450    7.5290   44.5030 C.ar  496  TRP496      0.0810
    141  CE3       44.3230    7.7080   46.7320 C.ar  496  TRP496      0.0012
    142  CZ2       45.8200    6.2840   44.7830 C.ar  496  TRP496      0.0191
    143  CZ3       44.8950    6.4610   47.0130 C.ar  496  TRP496      0.0001
    144  CH2       45.6340    5.7680   46.0370 C.ar  496  TRP496      0.0015
@<TRIPOS>BOND
     1    84    85    1
     2    87    86    2
     3   101   100    1
     4    93    91   ar
     5    93    92   ar
     6    98    99    1
     7    98    95    1
     8    91    89   ar
     9    99   100    1
    10    92    90   ar
    11    86    85    1
    12    86    94   am
    13    96    97    2
    14    96    95    1
    15    85    88    1
    16    89    90   ar
    17    89    88    1
    18    95    94    1
    19   102   103    1
    20   111   110    1
    21   111   114    1
    22   111   112    1
    23   105   104    2
    24   103   104    1
    25   103   106    1
    26   104   110   am
    27   110   116    1
    28   108   107    1
    29   116   115    1
    30   114   115    1
    31   112   113    2
    32   106   107    1
    33   107   109    1
    34    83    81   ar
    35    83    82   ar
    36    81    79   ar
    37    82    80   ar
    38    79    78   ar
    39   139   137   ar
    40   139   140   ar
    41    80    78   ar
    42   137   136   ar
    43    78    77    1
    44   134   133    2
    45   140   142   ar
    46   140   138   ar
    47    14    16    1
    48    14    13    1
    49    14    15    1
    50    77    74    1
    51    51    50   ar
    52    51    49   ar
    53    68    67    2
    54     9    10    1
    55   142   144   ar
    56   136   135    1
    57   136   138   ar
    58    13    10    1
    59    64    62    1
    60   133   132    1
    61    50    48   ar
    62    74    73    1
    63    74    75    1
    64   135   132    1
    65   138   141   ar
    66    63    61    1
    67    49    47   ar
    68   132   131    1
    69    67    73   am
    70    67    66    1
    71    10    11    1
    72    72    70    1
    73    61    62    1
    74    61    58    1
    75    70    69    1
    76    70    71    1
    77   144   143   ar
    78    69    66    1
    79    76    75    2
    80    48    47   ar
    81    47    46    1
    82    66    65    1
    83   141   143   ar
    84    30    29    1
    85    12    11    2
    86    60    59    2
    87    58    59    1
    88    58    57    1
    89    31    29    1
    90    29    26    1
    91    46    43    1
    92    57    54   am
    93   120   119    2
    94    45    44    2
    95    44    43    1
    96    28    27    2
    97    26    27    1
    98    26    25    1
    99    43    42    1
   100   121   122    1
   101   121   118    1
   102    54    55    2
   103    54    53    1
   104   119   118    1
   105   123   122   ar
   106   123   125   ar
   107   122   124   ar
   108    20    19    2
   109    25    19   am
   110   118   117    1
   111    42    34   am
   112     8     6    1
   113    19    18    1
   114   125   126   ar
   115    56    53    1
   116    53    52    1
   117   124   126   ar
   118   124   127   ar
   119   126   128   ar
   120   127   129   ar
   121    34    35    2
   122    34    33    1
   123    23    22   ar
   124    21    18    1
   125    21    22    1
   126     6     5    1
   127    18    17    1
   128    22    24   ar
   129   128   130   ar
   130   129   130   ar
   131    32    33    1
   132    38    40   ar
   133    38    37   ar
   134    33    36    1
   135     5     2    1
   136     5     7    1
   137    40    41   ar
   138     4     3    2
   139     3     2    1
   140     2     1    1
   141    36    37    1
   142    37    39   ar
   143    41    39   ar
