@<TRIPOS>MOLECULE
tmp/2o01N00.pdb
 94 90 0 0 0
SMALL
GASTEIGER

@<TRIPOS>ATOM
      1  N          2.7260  -15.2430   30.5130 N.3    30  ALA30      -0.1231
      2  CA         3.3370  -15.0750   31.8340 C.3    30  ALA30       0.1694
      3  C          4.7950  -14.6490   31.6530 C.2    30  ALA30       0.2592
      4  O          5.5750  -15.3890   31.0510 O.2    30  ALA30      -0.2718
      5  CB         3.2480  -16.3740   32.6320 C.3    30  ALA30       0.0304
      6  N          5.1540  -13.4640   32.1670 N.am   31  ASN31      -0.1974
      7  CA         6.5030  -12.8800   31.9800 C.3    31  ASN31       0.1688
      8  C          7.5090  -13.6560   32.7630 C.2    31  ASN31       0.2292
      9  O          8.6770  -13.3070   32.8300 O.2    31  ASN31      -0.2864
     10  CB         6.5590  -11.3990   32.3850 C.3    31  ASN31       0.1181
     11  CG         6.2690  -11.1360   33.8310 C.2    31  ASN31       0.2629
     12  OD1        6.2610  -12.0570   34.6400 O.2    31  ASN31      -0.2716
     13  ND2        6.1020   -9.8610   34.1630 N.am   31  ASN31      -0.0877
     14  N          7.9530  -19.0030   37.5000 N.3    35  TYR35      -0.1241
     15  CA         6.8570  -18.1740   38.0830 C.3    35  TYR35       0.1605
     16  C          6.8240  -18.0470   39.6250 C.2    35  TYR35       0.2264
     17  O          6.2700  -18.9190   40.3000 O.2    35  TYR35      -0.2867
     18  CB         5.4630  -18.5590   37.5530 C.3    35  TYR35       0.0534
     19  CG         4.3490  -17.5660   37.8000 C.ar   35  TYR35      -0.0201
     20  CD1        3.8180  -17.3350   39.0630 C.ar   35  TYR35      -0.0009
     21  CD2        3.8170  -16.8590   36.7230 C.ar   35  TYR35      -0.0009
     22  CE1        2.7850  -16.4250   39.2510 C.ar   35  TYR35       0.0417
     23  CE2        2.7880  -15.9560   36.8990 C.ar   35  TYR35       0.0417
     24  CZ         2.2770  -15.7430   38.1660 C.ar   35  TYR35       0.1957
     25  OH         1.2520  -14.8340   38.3130 O.3    35  TYR35      -0.2866
     26  N          6.9090  -12.0190   41.8570 N.3    39  GLU39      -0.1231
     27  CA         5.5480  -11.7400   41.3270 C.3    39  GLU39       0.1699
     28  C          4.5680  -11.0060   42.2840 C.2    39  GLU39       0.2592
     29  O          4.6800   -9.7920   42.5410 O.2    39  GLU39      -0.2718
     30  CB         4.8850  -13.0590   40.8490 C.3    39  GLU39       0.0402
     31  CG         4.6770  -13.2110   39.3430 C.3    39  GLU39       0.1161
     32  CD         5.7400  -14.0600   38.6420 C.2    39  GLU39       0.3649
     33  OE1        5.7470  -14.0980   37.3850 O.co2  39  GLU39      -0.2457
     34  OE2        6.5670  -14.6900   39.3350 O.co2  39  GLU39      -0.2457
     35  N          3.6020  -11.7900   42.7650 N.am   40  LEU40      -0.1980
     36  CA         2.5220  -11.3820   43.6630 C.3    40  LEU40       0.1596
     37  C          2.9800  -10.8040   45.0030 C.2    40  LEU40       0.2287
     38  O          2.1700  -10.3210   45.7970 O.2    40  LEU40      -0.2864
     39  CB         1.5820  -12.5790   43.8910 C.3    40  LEU40       0.0297
     40  CG         2.0700  -13.9730   44.3120 C.3    40  LEU40       0.0022
     41  CD1        1.2170  -14.9870   43.6090 C.3    40  LEU40       0.0001
     42  CD2        3.5320  -14.2590   44.0120 C.3    40  LEU40       0.0001
     43  N          4.6120   -8.2210   45.0470 N.3    42  HIS42      -0.1226
     44  CA         4.5320   -6.7840   44.7440 C.3    42  HIS42       0.1752
     45  C          3.2160   -6.1740   45.2500 C.2    42  HIS42       0.2596
     46  O          2.7820   -5.1050   44.8000 O.2    42  HIS42      -0.2718
     47  CB         4.8100   -6.5200   43.2280 C.3    42  HIS42       0.0759
     48  CG         3.6070   -6.6330   42.3160 C.ar   42  HIS42       0.0818
     49  ND1        3.1050   -7.8420   41.8780 N.ar   42  HIS42      -0.2268
     50  CD2        2.8500   -5.6780   41.7140 C.ar   42  HIS42       0.1154
     51  CE1        2.0740   -7.6290   41.0750 C.ar   42  HIS42       0.1986
     52  NE2        1.8960   -6.3260   40.9590 N.ar   42  HIS42      -0.2212
     53  N          2.6190   -6.8510   46.2290 N.am   43  CYS43      -0.1970
     54  CA         1.2010   -6.6980   46.5130 C.3    43  CYS43       0.1712
     55  C          0.8380   -6.6380   47.9990 C.2    43  CYS43       0.2296
     56  O          0.2850   -5.6400   48.4620 O.2    43  CYS43      -0.2864
     57  CB         0.4160   -7.8180   45.8130 C.3    43  CYS43       0.0983
     58  SG         1.1280   -8.3570   44.2080 S.3    43  CYS43      -0.0798
     59  N         -6.9290   -8.4970   48.1180 N.3   132  ILE132     -0.1231
     60  CA        -5.6590   -8.7720   47.4680 C.3   132  ILE132      0.1692
     61  C         -5.3990   -7.7740   46.3460 C.2   132  ILE132      0.2591
     62  O         -4.2810   -7.3010   46.1680 O.2   132  ILE132     -0.2718
     63  CB        -5.5830  -10.2260   46.9360 C.3   132  ILE132      0.0266
     64  CG1       -5.7320  -11.2290   48.1010 C.3   132  ILE132      0.0019
     65  CG2       -4.2870  -10.4370   46.1100 C.3   132  ILE132      0.0020
     66  CD1       -5.4260  -12.7250   47.7610 C.3   132  ILE132      0.0001
     67  N         -6.4430   -7.4310   45.6060 N.am  133  LYS133     -0.1980
     68  CA        -6.2860   -6.6710   44.3650 C.3   133  LYS133      0.1596
     69  C         -5.8420   -5.2500   44.6120 C.2   133  LYS133      0.2287
     70  O         -5.4710   -4.5310   43.6710 O.2   133  LYS133     -0.2864
     71  CB        -7.5870   -6.6460   43.5600 C.3   133  LYS133      0.0298
     72  CG        -8.6490   -5.6890   44.0970 C.3   133  LYS133      0.0038
     73  CD        -9.6080   -5.2720   43.0030 C.3   133  LYS133      0.0206
     74  CE        -9.1930   -3.9530   42.4040 C.3   133  LYS133      0.1093
     75  NZ        -7.7010   -3.7760   42.3100 N.3   133  LYS133     -0.1314
     76  N         -1.5540   -3.8830   44.5530 N.3   136  ARG136     -0.1231
     77  CA        -1.0230   -2.8790   43.6440 C.3   136  ARG136      0.1694
     78  C         -1.0640   -1.4830   44.3130 C.2   136  ARG136      0.2591
     79  O         -0.0930   -1.0430   44.9390 O.2   136  ARG136     -0.2718
     80  CB        -1.7930   -2.9340   42.3020 C.3   136  ARG136      0.0321
     81  CG        -1.3490   -1.9360   41.2160 C.3   136  ARG136      0.0489
     82  CD        -2.0440   -0.5730   41.4220 C.3   136  ARG136      0.2205
     83  NE        -1.9170    0.3940   40.3300 N.pl3 136  ARG136     -0.0865
     84  CZ        -1.9580    1.7200   40.4920 C.cat 136  ARG136      0.5346
     85  NH1       -2.0990    2.2330   41.7060 N.pl3 136  ARG136      0.1354
     86  NH2       -1.8390    2.5390   39.4470 N.pl3 136  ARG136      0.1354
     87  N         -2.2080   -0.8230   44.2250 N.am  137  LEU137     -0.1980
     88  CA        -2.3370    0.5650   44.6320 C.3   137  LEU137      0.1596
     89  C         -1.7430    0.8870   46.0270 C.2   137  LEU137      0.2287
     90  O         -1.6360    2.0510   46.4070 O.2   137  LEU137     -0.2864
     91  CB        -3.8200    0.9910   44.5590 C.3   137  LEU137      0.0297
     92  CG        -4.9090    0.4390   43.6010 C.3   137  LEU137      0.0022
     93  CD1       -4.6130    0.5930   42.1100 C.3   137  LEU137      0.0001
     94  CD2       -5.3040   -1.0010   43.9000 C.3   137  LEU137      0.0001
@<TRIPOS>BOND
     1     1     2    1
     2     4     3    2
     3     3     2    1
     4     3     6   am
     5     2     5    1
     6     7     6    1
     7     7    10    1
     8     7     8    1
     9    10    11    1
    10     8     9    2
    11    11    13   am
    12    11    12    2
    13    21    23   ar
    14    21    19   ar
    15    23    24   ar
    16    33    32   ar
    17    14    15    1
    18    18    19    1
    19    18    15    1
    20    19    20   ar
    21    15    16    1
    22    24    25    1
    23    24    22   ar
    24    32    34   ar
    25    32    31    1
    26    20    22   ar
    27    31    30    1
    28    86    84    1
    29    16    17    2
    30    83    84    2
    31    83    82    1
    32    84    85    1
    33    30    27    1
    34    52    51   ar
    35    52    50   ar
    36    51    49   ar
    37    81    82    1
    38    81    80    1
    39    27    26    1
    40    27    28    1
    41    50    48   ar
    42    49    48   ar
    43    93    92    1
    44    28    29    2
    45    28    35   am
    46    80    77    1
    47    75    74    1
    48    48    47    1
    49    74    73    1
    50    35    36    1
    51    73    72    1
    52    47    44    1
    53    71    72    1
    54    71    68    1
    55    92    94    1
    56    92    91    1
    57    41    40    1
    58    77    78    1
    59    77    76    1
    60    36    39    1
    61    36    37    1
    62    70    69    2
    63    39    40    1
    64    42    40    1
    65    58    57    1
    66    87    78   am
    67    87    88    1
    68    78    79    2
    69    68    69    1
    70    68    67    1
    71    91    88    1
    72    88    89    1
    73    44    43    1
    74    44    45    1
    75    46    45    2
    76    37    38    2
    77    45    53   am
    78    67    61   am
    79    57    54    1
    80    89    90    2
    81    65    63    1
    82    62    61    2
    83    53    54    1
    84    61    60    1
    85    54    55    1
    86    63    60    1
    87    63    64    1
    88    60    59    1
    89    66    64    1
    90    55    56    2
