@<TRIPOS>MOLECULE
tmp/2o01B02.pdb
 164 161 0 0 0
SMALL
GASTEIGER

@<TRIPOS>ATOM
      1  N         66.8350  -14.3590   33.1500 N.3    59  TRP59      -0.1241
      2  CA        66.6490  -13.0930   32.4400 C.3    59  TRP59       0.1605
      3  C         67.2180  -11.9580   33.2650 C.2    59  TRP59       0.2264
      4  O         67.3920  -10.8530   32.7750 O.2    59  TRP59      -0.2867
      5  CB        65.1520  -12.8440   32.2830 C.3    59  TRP59       0.0550
      6  CG        64.7000  -11.8020   31.3150 C.ar   59  TRP59       0.0003
      7  CD1       65.3170  -11.4190   30.1580 C.ar   59  TRP59       0.0946
      8  CD2       63.4730  -11.0490   31.3890 C.ar   59  TRP59       0.0152
      9  NE1       64.5620  -10.4510   29.5200 N.ar   59  TRP59      -0.2442
     10  CE2       63.4220  -10.2160   30.2490 C.ar   59  TRP59       0.0810
     11  CE3       62.4100  -11.0020   32.3050 C.ar   59  TRP59       0.0012
     12  CZ2       62.3440   -9.3440   30.0030 C.ar   59  TRP59       0.0191
     13  CZ3       61.3400  -10.1300   32.0550 C.ar   59  TRP59       0.0001
     14  CH2       61.3200   -9.3210   30.9200 C.ar   59  TRP59       0.0015
     15  N         71.4850   -9.4730   34.6450 N.3    63  ASN63      -0.1240
     16  CA        71.0380   -8.0800   34.7660 C.3    63  ASN63       0.1653
     17  C         70.7500   -7.5190   36.1900 C.2    63  ASN63       0.2266
     18  O         71.0160   -6.3470   36.4330 O.2    63  ASN63      -0.2867
     19  CB        69.9020   -7.7990   33.7830 C.3    63  ASN63       0.1155
     20  CG        69.1810   -9.0580   33.3150 C.2    63  ASN63       0.2627
     21  OD1       69.6740  -10.1820   33.4190 O.2    63  ASN63      -0.2716
     22  ND2       67.9860   -8.8540   32.7760 N.am   63  ASN63      -0.0877
     23  N         74.2770   -8.3980   36.8760 N.3    66  HIS66      -0.1226
     24  CA        74.8600   -7.4890   35.9000 C.3    66  HIS66       0.1752
     25  C         75.2500   -6.2010   36.5630 C.2    66  HIS66       0.2595
     26  O         76.3770   -5.7370   36.4090 O.2    66  HIS66      -0.2718
     27  CB        73.8180   -7.1830   34.8390 C.3    66  HIS66       0.0759
     28  CG        74.3800   -6.8020   33.5100 C.ar   66  HIS66       0.0818
     29  ND1       75.5470   -7.3340   33.0060 N.ar   66  HIS66      -0.2268
     30  CD2       73.8940   -5.9780   32.5520 C.ar   66  HIS66       0.1154
     31  CE1       75.7630   -6.8390   31.8010 C.ar   66  HIS66       0.1986
     32  NE2       74.7780   -6.0110   31.5050 N.ar   66  HIS66      -0.2212
     33  N         74.3060   -5.6250   37.3010 N.am   67  VAL67      -0.1980
     34  CA        74.5520   -4.3630   37.9790 C.3    67  VAL67       0.1595
     35  C         75.1840   -4.5920   39.3630 C.2    67  VAL67       0.2287
     36  O         75.2010   -5.7320   39.8540 O.2    67  VAL67      -0.2864
     37  CB        73.3350   -3.3680   37.8860 C.3    67  VAL67       0.0276
     38  CG1       72.0290   -4.1130   37.7350 C.3    67  VAL67       0.0022
     39  CG2       73.3000   -2.3680   39.0370 C.3    67  VAL67       0.0022
     40  N         71.6830    3.5070   34.2200 N.3    86  ILE86      -0.1231
     41  CA        72.8690    2.8520   33.6710 C.3    86  ILE86       0.1692
     42  C         72.6730    1.3730   33.4060 C.2    86  ILE86       0.2592
     43  O         72.4480    0.5980   34.3260 O.2    86  ILE86      -0.2718
     44  CB        74.0750    3.1210   34.5790 C.3    86  ILE86       0.0266
     45  CG1       75.2860    2.2720   34.1980 C.3    86  ILE86       0.0019
     46  CG2       73.6740    2.9920   36.0360 C.3    86  ILE86       0.0020
     47  CD1       76.6280    2.9620   34.4650 C.3    86  ILE86       0.0001
     48  N         72.7640    0.9940   32.1310 N.am   87  ALA87      -0.1966
     49  CA        72.5210   -0.3800   31.6880 C.3    87  ALA87       0.1728
     50  C         73.6860   -1.4000   31.8490 C.2    87  ALA87       0.2616
     51  O         73.7770   -2.0320   32.9030 O.2    87  ALA87      -0.2715
     52  CB        71.9640   -0.3770   30.2700 C.3    87  ALA87       0.0334
     53  N         74.5610   -1.5720   30.8480 N.am   88  HIS88      -0.1973
     54  CA        75.4010   -2.7990   30.8480 C.3    88  HIS88       0.1656
     55  C         76.9850   -2.8340   30.7950 C.2    88  HIS88       0.2291
     56  O         77.6300   -3.5530   31.5750 O.2    88  HIS88      -0.2864
     57  CB        74.7500   -3.9550   30.0090 C.3    88  HIS88       0.0771
     58  CG        74.3500   -3.6110   28.5940 C.ar   88  HIS88       0.0820
     59  ND1       75.1960   -3.0070   27.6820 N.ar   88  HIS88      -0.2267
     60  CD2       73.2110   -3.8870   27.9130 C.ar   88  HIS88       0.1154
     61  CE1       74.5850   -2.8930   26.5150 C.ar   88  HIS88       0.1986
     62  NE2       73.3790   -3.4190   26.6310 N.ar   88  HIS88      -0.2212
     63  N         79.8080   -2.0890   27.3140 N.3    90  ILE90      -0.1245
     64  CA        79.6660   -2.3950   25.8840 C.3    90  ILE90       0.1561
     65  C         80.9700   -2.7440   25.1630 C.2    90  ILE90       0.2260
     66  O         81.6620   -1.8690   24.6390 O.2    90  ILE90      -0.2867
     67  CB        78.9460   -1.2530   25.1540 C.3    90  ILE90       0.0252
     68  CG1       77.4570   -1.2290   25.5380 C.3    90  ILE90       0.0019
     69  CG2       79.0390   -1.4490   23.6550 C.3    90  ILE90       0.0019
     70  CD1       77.1220   -0.8000   26.9580 C.3    90  ILE90       0.0001
     71  N         75.7400    1.6850   28.3060 N.3   113  ASN113     -0.1225
     72  CA        74.3790    1.9660   27.8520 C.3   113  ASN113      0.1785
     73  C         73.5590    2.7430   28.8650 C.2   113  ASN113      0.2597
     74  O         73.6850    2.5560   30.0730 O.2   113  ASN113     -0.2718
     75  CB        73.6240    0.6630   27.4980 C.3   113  ASN113      0.1169
     76  CG        73.8560    0.2220   26.0670 C.2   113  ASN113      0.2627
     77  OD1       72.9320   -0.1750   25.3470 O.2   113  ASN113     -0.2716
     78  ND2       75.1010    0.3080   25.6410 N.am  113  ASN113     -0.0877
     79  N         72.6960    3.6030   28.3500 N.am  114  ASN114     -0.1960
     80  CA        71.8470    4.3990   29.2000 C.3   114  ASN114      0.1819
     81  C         70.5740    3.6460   29.5480 C.2   114  ASN114      0.2621
     82  O         69.5990    3.7400   28.8100 O.2   114  ASN114     -0.2715
     83  CB        71.5210    5.7400   28.5310 C.3   114  ASN114      0.1195
     84  CG        71.0460    6.7930   29.5270 C.2   114  ASN114      0.2630
     85  OD1       71.5810    7.8940   29.5680 O.2   114  ASN114     -0.2716
     86  ND2       70.0330    6.4640   30.3190 N.am  114  ASN114     -0.0877
     87  N         70.5880    2.9180   30.6740 N.am  115  ALA115     -0.1963
     88  CA        69.4070    2.1690   31.1730 C.3   115  ALA115      0.1728
     89  C         68.1060    2.9670   31.3350 C.2   115  ALA115      0.2616
     90  O         68.0850    4.0910   31.8380 O.2   115  ALA115     -0.2715
     91  CB        69.7160    1.4200   32.4550 C.3   115  ALA115      0.0334
     92  N         67.0230    2.3190   30.9150 N.am  116  TYR116     -0.1960
     93  CA        65.6890    2.9070   30.8140 C.3   116  TYR116      0.1771
     94  C         64.6270    1.8870   31.2450 C.2   116  TYR116      0.2620
     95  O         63.4270    2.1430   31.1490 O.2   116  TYR116     -0.2715
     96  CB        65.4380    3.4250   29.3670 C.3   116  TYR116      0.0574
     97  CG        66.3340    4.5870   29.0080 C.ar  116  TYR116     -0.0198
     98  CD1       67.4390    4.4160   28.1910 C.ar  116  TYR116     -0.0009
     99  CD2       66.1020    5.8540   29.5360 C.ar  116  TYR116     -0.0009
    100  CE1       68.2870    5.4900   27.8850 C.ar  116  TYR116      0.0417
    101  CE2       66.9410    6.9290   29.2440 C.ar  116  TYR116      0.0417
    102  CZ        68.0260    6.7460   28.4210 C.ar  116  TYR116      0.1957
    103  OH        68.8320    7.8350   28.1570 O.3   116  TYR116     -0.2866
    104  N         65.0820    0.7410   31.7450 N.am  117  SER117     -0.1950
    105  CA        64.1870   -0.3890   32.0820 C.3   117  SER117      0.1924
    106  C         63.3150   -0.1460   33.3250 C.2   117  SER117      0.2314
    107  O         62.5940   -1.0550   33.7550 O.2   117  SER117     -0.2863
    108  CB        64.9770   -1.7190   32.2200 C.3   117  SER117      0.2116
    109  OG        64.1480   -2.8660   32.0180 O.3   117  SER117     -0.2180
    110  N         62.6410   -0.4570   36.5170 N.3   119  VAL119     -0.1245
    111  CA        63.2520   -1.4810   37.3770 C.3   119  VAL119      0.1561
    112  C         64.2060   -0.9840   38.4770 C.2   119  VAL119      0.2260
    113  O         63.9310   -1.1760   39.6450 O.2   119  VAL119     -0.2867
    114  CB        63.8660   -2.6580   36.4900 C.3   119  VAL119      0.0252
    115  CG1       65.2070   -3.1710   37.0090 C.3   119  VAL119      0.0019
    116  CG2       62.8970   -3.8100   36.3740 C.3   119  VAL119      0.0019
    117  N         74.1460    6.5060   18.4650 N.3   644  VAL644     -0.1231
    118  CA        73.5080    5.2170   18.1120 C.3   644  VAL644      0.1692
    119  C         72.3300    5.2980   17.1440 C.2   644  VAL644      0.2592
    120  O         72.4990    4.9240   16.0030 O.2   644  VAL644     -0.2718
    121  CB        73.2060    4.3120   19.3860 C.3   644  VAL644      0.0266
    122  CG1       71.9580    3.4110   19.2370 C.3   644  VAL644      0.0020
    123  CG2       74.4250    3.4640   19.7300 C.3   644  VAL644      0.0020
    124  N         71.1700    5.7660   17.5960 N.am  645  TRP645     -0.1976
    125  CA        69.9290    5.8120   16.8020 C.3   645  TRP645      0.1640
    126  C         70.1330    6.6210   15.5320 C.2   645  TRP645      0.2290
    127  O         69.5700    6.3330   14.4770 O.2   645  TRP645     -0.2864
    128  CB        68.8680    6.4400   17.6650 C.3   645  TRP645      0.0576
    129  CG        69.4060    6.4770   18.9980 C.ar  645  TRP645      0.0006
    130  CD1       70.4450    7.2570   19.4230 C.ar  645  TRP645      0.0946
    131  CD2       69.0430    5.6510   20.0990 C.ar  645  TRP645      0.0152
    132  NE1       70.7310    6.9890   20.7380 N.ar  645  TRP645     -0.2442
    133  CE2       69.8870    6.0070   21.1800 C.ar  645  TRP645      0.0810
    134  CE3       68.0930    4.6560   20.2880 C.ar  645  TRP645      0.0012
    135  CZ2       69.7990    5.4050   22.4330 C.ar  645  TRP645      0.0191
    136  CZ3       67.9960    4.0640   21.5360 C.ar  645  TRP645      0.0001
    137  CH2       68.8490    4.4430   22.5990 C.ar  645  TRP645      0.0015
    138  N         70.9180    3.3440   14.6590 N.3   648  MET648     -0.1245
    139  CA        69.7730    2.4630   14.8580 C.3   648  MET648      0.1570
    140  C         68.6130    2.9850   14.0570 C.2   648  MET648      0.2261
    141  O         67.9250    2.2220   13.4150 O.2   648  MET648     -0.2867
    142  CB        69.3440    2.4290   16.3220 C.3   648  MET648      0.0387
    143  CG        69.8090    1.2650   17.1830 C.3   648  MET648      0.0595
    144  SD        68.9790    1.3430   18.8110 S.3   648  MET648     -0.1393
    145  CE        67.2640    1.3250   18.3190 C.3   648  MET648      0.0692
    146  N         61.6620   -0.7820   15.7760 N.3   718  PHE718     -0.1241
    147  CA        62.8230    0.1060   15.8330 C.3   718  PHE718      0.1605
    148  C         62.5350    1.5500   15.4520 C.2   718  PHE718      0.2264
    149  O         61.4500    1.8700   14.9690 O.2   718  PHE718     -0.2867
    150  CB        64.0390   -0.4730   15.0940 C.3   718  PHE718      0.0534
    151  CG        64.8380   -1.3880   15.9490 C.ar  718  PHE718     -0.0203
    152  CD1       65.4740   -0.8930   17.0870 C.ar  718  PHE718     -0.0042
    153  CD2       64.8890   -2.7480   15.6860 C.ar  718  PHE718     -0.0042
    154  CE1       66.1800   -1.7240   17.9220 C.ar  718  PHE718     -0.0003
    155  CE2       65.5960   -3.5940   16.5310 C.ar  718  PHE718     -0.0003
    156  CZ        66.2520   -3.0760   17.6440 C.ar  718  PHE718     -0.0000
    157  N         63.8520    7.8720   22.6880 N.3   725  ILE725     -0.1245
    158  CA        64.9000    7.8330   23.6840 C.3   725  ILE725      0.1561
    159  C         65.9200    8.9170   23.3700 C.2   725  ILE725      0.2260
    160  O         66.4620    9.5840   24.2690 O.2   725  ILE725     -0.2867
    161  CB        65.5830    6.4680   23.6740 C.3   725  ILE725      0.0252
    162  CG1       64.5120    5.3570   23.6100 C.3   725  ILE725      0.0019
    163  CG2       66.5950    6.3910   24.8380 C.3   725  ILE725      0.0019
    164  CD1       65.0160    3.9670   23.8300 C.3   725  ILE725      0.0001
@<TRIPOS>BOND
     1   141   140    2
     2   140   139    1
     3   127   126    2
     4   138   139    1
     5   139   142    1
     6   149   148    2
     7   150   147    1
     8   150   151    1
     9   148   147    1
    10   126   125    1
    11   153   151   ar
    12   153   155   ar
    13   146   147    1
    14   151   152   ar
    15   120   119    2
    16   142   143    1
    17   155   156   ar
    18   125   124    1
    19   125   128    1
    20   152   154   ar
    21   119   124   am
    22   119   118    1
    23   143   144    1
    24   156   154   ar
    25   128   129    1
    26   118   117    1
    27   118   121    1
    28   145   144    1
    29   129   130   ar
    30   129   131   ar
    31   122   121    1
    32   121   123    1
    33   130   132   ar
    34   131   134   ar
    35   131   133   ar
    36   134   136   ar
    37   132   133   ar
    38   133   135   ar
    39   136   137   ar
    40   135   137   ar
    41   157   158    1
    42   159   158    1
    43   159   160    2
    44   162   161    1
    45   162   164    1
    46    69    67    1
    47   161   158    1
    48   161   163    1
    49    66    65    2
    50    67    68    1
    51    67    64    1
    52    65    64    1
    53    77    76    2
    54    68    70    1
    55    78    76   am
    56    64    63    1
    57    76    75    1
    58    61    62   ar
    59    61    59   ar
    60    62    60   ar
    61    75    72    1
    62    59    58   ar
    63    72    71    1
    64    72    73    1
    65   100    98   ar
    66   100   102   ar
    67    60    58   ar
    68   103   102    1
    69    98    97   ar
    70    79    73   am
    71    79    80    1
    72   102   101   ar
    73    83    80    1
    74    83    84    1
    75    58    57    1
    76    82    81    2
    77    73    74    2
    78    97    96    1
    79    97    99   ar
    80    80    81    1
    81   101    99   ar
    82    96    93    1
    83     9     7   ar
    84     9    10   ar
    85    84    85    2
    86    84    86   am
    87    81    87   am
    88    12    10   ar
    89    12    14   ar
    90    57    54    1
    91     7     6   ar
    92    10     8   ar
    93    52    49    1
    94    87    88    1
    95    55    54    1
    96    55    56    2
    97    93    92    1
    98    93    94    1
    99    53    54    1
   100    53    50   am
   101    92    89   am
   102    14    13   ar
   103    95    94    2
   104    88    89    1
   105    88    91    1
   106    94   104   am
   107     6     8   ar
   108     6     5    1
   109    89    90    2
   110     8    11   ar
   111    32    31   ar
   112    32    30   ar
   113    49    50    1
   114    49    48    1
   115   104   105    1
   116    31    29   ar
   117    50    51    2
   118   109   108    1
   119    13    11   ar
   120   105   108    1
   121   105   106    1
   122    48    42   am
   123     5     2    1
   124     2     1    1
   125     2     3    1
   126    30    28   ar
   127     4     3    2
   128    22    20   am
   129    29    28   ar
   130    20    21    2
   131    20    19    1
   132   106   107    2
   133    42    41    1
   134    42    43    2
   135    28    27    1
   136    41    40    1
   137    41    44    1
   138    19    16    1
   139    45    47    1
   140    45    44    1
   141    44    46    1
   142    15    16    1
   143    16    17    1
   144    27    24    1
   145    24    25    1
   146    24    23    1
   147    17    18    2
   148   116   114    1
   149    26    25    2
   150   114   115    1
   151   114   111    1
   152   110   111    1
   153    25    33   am
   154    33    34    1
   155   111   112    1
   156    38    37    1
   157    37    34    1
   158    37    39    1
   159    34    35    1
   160   112   113    2
   161    35    36    2
