@<TRIPOS>MOLECULE
tmp/2o01B33.pdb
 123 120 0 0 0
SMALL
GASTEIGER

@<TRIPOS>ATOM
      1  N         65.4830  -25.9260    0.4980 N.3    17  THR17      -0.1218
      2  CA        65.5220  -24.8250    1.4570 C.3    17  THR17       0.1862
      3  C         64.2910  -24.7280    2.3930 C.2    17  THR17       0.2287
      4  O         64.4130  -24.3360    3.5490 O.2    17  THR17      -0.2866
      5  CB        65.8850  -23.4680    0.6990 C.3    17  THR17       0.1770
      6  OG1       66.1490  -22.4150    1.6320 O.3    17  THR17      -0.2211
      7  CG2       64.7850  -23.0070   -0.3060 C.3    17  THR17       0.0375
      8  N         64.2340  -26.1040    5.9630 N.3    20  ILE20      -0.1231
      9  CA        64.8610  -25.1920    6.9140 C.3    20  ILE20       0.1692
     10  C         63.9480  -23.9910    7.3000 C.2    20  ILE20       0.2592
     11  O         63.8480  -23.6270    8.4800 O.2    20  ILE20      -0.2718
     12  CB        66.2750  -24.8300    6.4380 C.3    20  ILE20       0.0266
     13  CG1       67.0560  -26.1440    6.2460 C.3    20  ILE20       0.0019
     14  CG2       66.9720  -23.8370    7.4140 C.3    20  ILE20       0.0020
     15  CD1       68.0990  -26.1240    5.1390 C.3    20  ILE20       0.0001
     16  N         63.2570  -23.4000    6.3260 N.am   21  TRP21      -0.1976
     17  CA        62.1390  -22.5110    6.6600 C.3    21  TRP21       0.1640
     18  C         61.1560  -23.4180    7.3920 C.2    21  TRP21       0.2290
     19  O         61.0540  -23.3570    8.6310 O.2    21  TRP21      -0.2864
     20  CB        61.4440  -21.9030    5.4220 C.3    21  TRP21       0.0576
     21  CG        62.3040  -21.6290    4.2540 C.ar   21  TRP21       0.0006
     22  CD1       62.1330  -22.1100    3.0050 C.ar   21  TRP21       0.0946
     23  CD2       63.4740  -20.8130    4.2140 C.ar   21  TRP21       0.0152
     24  NE1       63.1250  -21.6600    2.1750 N.ar   21  TRP21      -0.2442
     25  CE2       63.9660  -20.8580    2.8980 C.ar   21  TRP21       0.0810
     26  CE3       64.1620  -20.0560    5.1640 C.ar   21  TRP21       0.0012
     27  CZ2       65.1080  -20.1600    2.4970 C.ar   21  TRP21       0.0191
     28  CZ3       65.3090  -19.3680    4.7650 C.ar   21  TRP21       0.0001
     29  CH2       65.7620  -19.4210    3.4410 C.ar   21  TRP21       0.0015
     30  N         65.8970  -16.9910   -9.9170 N.3   674  ILE674     -0.1245
     31  CA        66.8790  -17.7120   -9.1220 C.3   674  ILE674      0.1561
     32  C         67.1830  -19.0820   -9.7000 C.2   674  ILE674      0.2260
     33  O         68.0400  -19.8030   -9.1870 O.2   674  ILE674     -0.2867
     34  CB        66.5690  -17.7110   -7.5880 C.3   674  ILE674      0.0252
     35  CG1       65.7160  -18.9180   -7.1250 C.3   674  ILE674      0.0019
     36  CG2       66.0090  -16.3280   -7.1540 C.3   674  ILE674      0.0019
     37  CD1       65.6520  -19.0610   -5.5540 C.3   674  ILE674      0.0001
     38  N         70.2590  -18.5560  -12.9280 N.3   677  LEU677     -0.1231
     39  CA        71.6040  -18.3900  -12.4190 C.3   677  LEU677      0.1693
     40  C         71.9090  -19.4450  -11.3630 C.2   677  LEU677      0.2591
     41  O         73.0930  -19.7630  -11.1210 O.2   677  LEU677     -0.2718
     42  CB        71.8080  -16.9900  -11.8690 C.3   677  LEU677      0.0284
     43  CG        71.0530  -16.5740  -10.6110 C.3   677  LEU677      0.0019
     44  CD1       69.5970  -16.2760  -10.9280 C.3   677  LEU677      0.0001
     45  CD2       71.2340  -17.5630   -9.4410 C.3   677  LEU677      0.0001
     46  N         70.8490  -19.9800  -10.7380 N.am  678  ALA678     -0.1980
     47  CA        70.9100  -21.3470  -10.1860 C.3   678  ALA678      0.1597
     48  C         70.9560  -22.2990  -11.3900 C.2   678  ALA678      0.2287
     49  O         69.9470  -22.8570  -11.8310 O.2   678  ALA678     -0.2864
     50  CB        69.7350  -21.6320   -9.2940 C.3   678  ALA678      0.0319
     51  N         75.8190  -20.6240  -11.9780 N.3   681  HIS681     -0.1241
     52  CA        76.8700  -21.2460  -11.1760 C.3   681  HIS681      0.1621
     53  C         76.8940  -22.8000  -11.1970 C.2   681  HIS681      0.2264
     54  O         77.3120  -23.4730  -10.2230 O.2   681  HIS681     -0.2867
     55  CB        77.1530  -20.5810   -9.8040 C.3   681  HIS681      0.0745
     56  CG        75.9560  -20.0930   -9.0480 C.ar  681  HIS681      0.0817
     57  ND1       75.8740  -20.1800   -7.6690 N.ar  681  HIS681     -0.2268
     58  CD2       74.8320  -19.4600   -9.4500 C.ar  681  HIS681      0.1154
     59  CE1       74.7390  -19.6420   -7.2590 C.ar  681  HIS681      0.1986
     60  NE2       74.0880  -19.1950   -8.3190 N.ar  681  HIS681     -0.2212
     61  N         81.1840  -28.4080   -7.2000 N.3   690  ILE690     -0.1245
     62  CA        80.4340  -27.8460   -6.0410 C.3   690  ILE690      0.1561
     63  C         78.8880  -28.0070   -6.1890 C.2   690  ILE690      0.2260
     64  O         78.2050  -27.0770   -6.5850 O.2   690  ILE690     -0.2867
     65  CB        80.8060  -26.3120   -5.8160 C.3   690  ILE690      0.0252
     66  CG1       81.2540  -25.6410   -7.1350 C.3   690  ILE690      0.0019
     67  CG2       81.8920  -26.1230   -4.7360 C.3   690  ILE690      0.0019
     68  CD1       80.1140  -25.3370   -8.1540 C.3   690  ILE690      0.0001
     69  N         76.1780  -28.7660   -4.1050 N.3   692  TRP692     -0.1227
     70  CA        75.2740  -28.1940   -3.0870 C.3   692  TRP692      0.1737
     71  C         74.2370  -29.1270   -2.5070 C.2   692  TRP692      0.2595
     72  O         73.5580  -29.8200   -3.2640 O.2   692  TRP692     -0.2718
     73  CB        74.6230  -26.9240   -3.5970 C.3   692  TRP692      0.0564
     74  CG        73.5220  -27.0430   -4.6050 C.ar  692  TRP692      0.0003
     75  CD1       72.3590  -27.7290   -4.4720 C.ar  692  TRP692      0.0946
     76  CD2       73.4310  -26.3470   -5.8510 C.ar  692  TRP692      0.0152
     77  NE1       71.5600  -27.5300   -5.5600 N.ar  692  TRP692     -0.2442
     78  CE2       72.1980  -26.6870   -6.4270 C.ar  692  TRP692      0.0810
     79  CE3       74.2690  -25.4630   -6.5260 C.ar  692  TRP692      0.0012
     80  CZ2       71.7940  -26.2010   -7.6590 C.ar  692  TRP692      0.0191
     81  CZ3       73.8750  -24.9830   -7.7390 C.ar  692  TRP692      0.0001
     82  CH2       72.6420  -25.3490   -8.3000 C.ar  692  TRP692      0.0015
     83  N         74.0910  -29.1430   -1.1750 N.am  693  ARG693     -0.1966
     84  CA        73.4640  -30.3180   -0.4990 C.3   693  ARG693      0.1729
     85  C         71.9740  -30.4790   -0.7610 C.2   693  ARG693      0.2616
     86  O         71.5180  -31.5810   -1.0690 O.2   693  ARG693     -0.2715
     87  CB        73.7890  -30.4000    1.0060 C.3   693  ARG693      0.0348
     88  CG        74.1300  -31.8150    1.4910 C.3   693  ARG693      0.0492
     89  CD        72.8890  -32.6080    1.9140 C.3   693  ARG693      0.2205
     90  NE        72.8520  -32.8470    3.3590 N.pl3 693  ARG693     -0.0865
     91  CZ        72.0950  -33.7580    3.9830 C.cat 693  ARG693      0.5346
     92  NH1       71.2740  -34.5550    3.2940 N.pl3 693  ARG693      0.1354
     93  NH2       72.1640  -33.8770    5.3130 N.pl3 693  ARG693      0.1354
     94  N         71.2240  -29.3870   -0.6230 N.am  694  ASP694     -0.1971
     95  CA        69.9100  -29.2820   -1.2950 C.3   694  ASP694      0.1709
     96  C         69.8190  -28.0980   -2.3030 C.2   694  ASP694      0.2293
     97  O         70.8090  -27.4820   -2.6780 O.2   694  ASP694     -0.2864
     98  CB        68.7210  -29.3540   -0.3110 C.3   694  ASP694      0.1436
     99  CG        68.7120  -28.2210    0.6660 C.2   694  ASP694      0.3671
    100  OD1       67.6460  -27.6040    0.8170 O.co2 694  ASP694     -0.2456
    101  OD2       69.7820  -27.9330    1.2580 O.co2 694  ASP694     -0.2456
    102  N         68.3210  -24.7400   -4.0840 N.3   696  PRO696     -0.2102
    103  CA        67.8710  -23.3570   -3.9570 C.3   696  PRO696      0.1504
    104  C         66.5340  -23.0890   -4.6170 C.2   696  PRO696      0.2575
    105  O         66.4590  -23.0900   -5.8520 O.2   696  PRO696     -0.2718
    106  CB        68.9320  -22.5850   -4.7150 C.3   696  PRO696      0.0282
    107  CG        70.0990  -23.4900   -4.8120 C.3   696  PRO696      0.0208
    108  CD        69.7690  -24.8280   -4.3010 C.3   696  PRO696      0.0893
    109  N         65.4880  -22.8770   -3.8170 N.am  697  VAL697     -0.1980
    110  CA        64.2570  -22.3040   -4.3680 C.3   697  VAL697      0.1595
    111  C         63.7840  -20.9760   -3.6890 C.2   697  VAL697      0.2287
    112  O         64.2320  -20.6160   -2.5780 O.2   697  VAL697     -0.2864
    113  CB        63.1030  -23.3710   -4.5890 C.3   697  VAL697      0.0276
    114  CG1       63.6560  -24.6600   -5.0680 C.3   697  VAL697      0.0022
    115  CG2       62.2730  -23.6030   -3.3560 C.3   697  VAL697      0.0022
    116  N         60.4340  -18.5240   -2.3190 N.3   699  LEU699     -0.1245
    117  CA        59.8180  -18.6770   -1.0040 C.3   699  LEU699      0.1561
    118  C         58.3050  -18.8030   -0.9260 C.2   699  LEU699      0.2260
    119  O         57.5870  -17.8710   -1.2230 O.2   699  LEU699     -0.2867
    120  CB        60.2540  -17.4980   -0.1660 C.3   699  LEU699      0.0270
    121  CG        61.6660  -17.7320    0.2650 C.3   699  LEU699      0.0019
    122  CD1       62.3600  -16.4030    0.3710 C.3   699  LEU699      0.0001
    123  CD2       61.6050  -18.4900    1.5690 C.3   699  LEU699      0.0001
@<TRIPOS>BOND
     1    38    39    1
     2    39    42    1
     3    39    40    1
     4    51    52    1
     5    42    43    1
     6    49    48    2
     7    48    47    1
     8    40    41    2
     9    40    46   am
    10    53    52    1
    11    53    54    2
    12    52    55    1
    13    44    43    1
    14    46    47    1
    15    43    45    1
    16    47    50    1
    17    30    31    1
    18    55    56    1
    19    32    33    2
    20    32    31    1
    21    58    56   ar
    22    58    60   ar
    23    31    34    1
    24    56    57   ar
    25    60    59   ar
    26    82    81   ar
    27    82    80   ar
    28    68    66    1
    29    81    79   ar
    30    57    59   ar
    31    80    78   ar
    32    34    36    1
    33    34    35    1
    34    61    62    1
    35    66    65    1
    36    35    37    1
    37    64    63    2
    38    79    76   ar
    39    78    76   ar
    40    78    77   ar
    41    63    62    1
    42    62    65    1
    43   105   104    2
    44    76    74   ar
    45    65    67    1
    46    77    75   ar
    47   114   113    1
    48   107   106    1
    49   107   108    1
    50   106   103    1
    51   104   103    1
    52   104   109   am
    53    74    75   ar
    54    74    73    1
    55   113   110    1
    56   113   115    1
    57   110   109    1
    58   110   111    1
    59   108   102    1
    60    69    70    1
    61   102   103    1
    62   111   112    2
    63    73    70    1
    64    72    71    2
    65    70    71    1
    66    97    96    2
    67    71    83   am
    68   116   117    1
    69    96    95    1
    70    95    94    1
    71    95    98    1
    72   119   118    2
    73    83    84    1
    74    86    85    2
    75   117   118    1
    76   117   120    1
    77    85    94   am
    78    85    84    1
    79    84    87    1
    80    98    99    1
    81     7     5    1
    82   120   121    1
    83   121   122    1
    84   121   123    1
    85     1     2    1
    86    99   100   ar
    87    99   101   ar
    88     5     2    1
    89     5     6    1
    90    87    88    1
    91     2     3    1
    92    88    89    1
    93    89    90    1
    94    24    25   ar
    95    24    22   ar
    96     3     4    2
    97    27    25   ar
    98    27    29   ar
    99    25    23   ar
   100    22    21   ar
   101    92    91    1
   102    90    91    2
   103    29    28   ar
   104    91    93    1
   105    23    21   ar
   106    23    26   ar
   107    21    20    1
   108    28    26   ar
   109    15    13    1
   110    20    17    1
   111     8     9    1
   112    13    12    1
   113    16    17    1
   114    16    10   am
   115    12     9    1
   116    12    14    1
   117    17    18    1
   118     9    10    1
   119    10    11    2
   120    18    19    2
