@<TRIPOS>MOLECULE
tmp/2o01B11.pdb
 209 205 0 0 0
SMALL
GASTEIGER

@<TRIPOS>ATOM
      1  N         61.6990   -0.0910   40.9230 N.3   122  TRP122     -0.1241
      2  CA        61.1570   -1.4160   41.3060 C.3   122  TRP122      0.1605
      3  C         62.1930   -2.2260   42.1010 C.2   122  TRP122      0.2264
      4  O         61.8350   -3.0910   42.9230 O.2   122  TRP122     -0.2867
      5  CB        60.6970   -2.1800   40.0360 C.3   122  TRP122      0.0550
      6  CG        60.3760   -3.6860   40.1670 C.ar  122  TRP122      0.0003
      7  CD1       61.2050   -4.6680   40.6290 C.ar  122  TRP122      0.0946
      8  CD2       59.1640   -4.3500   39.7600 C.ar  122  TRP122      0.0152
      9  NE1       60.5680   -5.8880   40.5910 N.ar  122  TRP122     -0.2442
     10  CE2       59.3180   -5.7230   40.0570 C.ar  122  TRP122      0.0810
     11  CE3       57.9580   -3.9150   39.1960 C.ar  122  TRP122      0.0012
     12  CZ2       58.3090   -6.6680   39.8070 C.ar  122  TRP122      0.0191
     13  CZ3       56.9460   -4.8660   38.9510 C.ar  122  TRP122      0.0001
     14  CH2       57.1350   -6.2210   39.2520 C.ar  122  TRP122      0.0015
     15  N         62.6510    0.1580   45.6920 N.3   125  THR125     -0.1203
     16  CA        61.3490    0.0720   46.3450 C.3   125  THR125      0.1994
     17  C         61.3410   -1.1470   47.2490 C.2   125  THR125      0.2617
     18  O         61.5450   -0.9780   48.4440 O.2   125  THR125     -0.2717
     19  CB        60.1680    0.0390   45.3310 C.3   125  THR125      0.1784
     20  OG1       60.6430    0.3220   44.0070 O.3   125  THR125     -0.2211
     21  CG2       59.1160    1.0640   45.7080 C.3   125  THR125      0.0376
     22  N         61.1730   -2.3570   46.7000 N.am  126  ILE126     -0.1979
     23  CA        61.1350   -3.5760   47.5300 C.3   126  ILE126      0.1595
     24  C         62.0190   -3.4670   48.7680 C.2   126  ILE126      0.2287
     25  O         61.5690   -3.7880   49.8740 O.2   126  ILE126     -0.2864
     26  CB        61.4580   -4.8970   46.7670 C.3   126  ILE126      0.0276
     27  CG1       61.2690   -6.1080   47.7000 C.3   126  ILE126      0.0022
     28  CG2       62.8850   -4.8800   46.1940 C.3   126  ILE126      0.0022
     29  CD1       60.4460   -7.2360   47.1400 C.3   126  ILE126      0.0001
     30  N         47.8670  -19.2800   43.3130 N.3   181  LEU181     -0.1231
     31  CA        48.5670  -18.5500   42.2610 C.3   181  LEU181      0.1693
     32  C         48.8890  -17.1180   42.6390 C.2   181  LEU181      0.2592
     33  O         50.0700  -16.7580   42.6880 O.2   181  LEU181     -0.2718
     34  CB        47.8060  -18.5880   40.9350 C.3   181  LEU181      0.0284
     35  CG        48.6250  -18.2860   39.6560 C.3   181  LEU181      0.0019
     36  CD1       48.4300  -16.8760   39.1290 C.3   181  LEU181      0.0001
     37  CD2       50.1140  -18.5910   39.8390 C.3   181  LEU181      0.0001
     38  N         47.8450  -16.3160   42.8790 N.am  182  PHE182     -0.1976
     39  CA        47.9730  -14.9420   43.3690 C.3   182  PHE182      0.1639
     40  C         48.0120  -14.9870   44.8900 C.2   182  PHE182      0.2290
     41  O         49.0760  -15.2240   45.4480 O.2   182  PHE182     -0.2864
     42  CB        46.8190  -14.0650   42.8780 C.3   182  PHE182      0.0560
     43  CG        46.5800  -14.1250   41.3750 C.ar  182  PHE182     -0.0200
     44  CD1       47.3480  -13.3600   40.4930 C.ar  182  PHE182     -0.0042
     45  CD2       45.5490  -14.9210   40.8450 C.ar  182  PHE182     -0.0042
     46  CE1       47.1010  -13.4040   39.1130 C.ar  182  PHE182     -0.0003
     47  CE2       45.2940  -14.9670   39.4740 C.ar  182  PHE182     -0.0003
     48  CZ        46.0710  -14.2120   38.6070 C.ar  182  PHE182     -0.0000
     49  N         50.7460  -15.3980   47.5260 N.3   185  SER185     -0.1202
     50  CA        51.8730  -14.7870   46.8210 C.3   185  SER185      0.2020
     51  C         52.1190  -13.3920   47.3430 C.2   185  SER185      0.2619
     52  O         53.2030  -13.1070   47.8820 O.2   185  SER185     -0.2717
     53  CB        51.6330  -14.7750   45.3050 C.3   185  SER185      0.2103
     54  OG        51.5020  -16.0920   44.7930 O.3   185  SER185     -0.2182
     55  N         51.1050  -12.5410   47.2030 N.am  186  SER186     -0.1951
     56  CA        51.0950  -11.2530   47.8810 C.3   186  SER186      0.1924
     57  C         51.4600  -11.4690   49.3730 C.2   186  SER186      0.2314
     58  O         52.6460  -11.4400   49.7150 O.2   186  SER186     -0.2863
     59  CB        49.7390  -10.5720   47.7160 C.3   186  SER186      0.2116
     60  OG        48.9610  -11.2410   46.7230 O.3   186  SER186     -0.2180
     61  N         54.7730  -11.0560   50.1000 N.3   189  TRP189     -0.1241
     62  CA        55.0050   -9.8750   49.2950 C.3   189  TRP189      0.1605
     63  C         54.3210   -8.6580   49.9640 C.2   189  TRP189      0.2264
     64  O         54.9690   -7.6490   50.2940 O.2   189  TRP189     -0.2867
     65  CB        54.4580  -10.0320   47.8670 C.3   189  TRP189      0.0550
     66  CG        54.2280   -8.6830   47.3340 C.ar  189  TRP189      0.0003
     67  CD1       53.0270   -8.0520   47.1240 C.ar  189  TRP189      0.0946
     68  CD2       55.2420   -7.7260   47.0720 C.ar  189  TRP189      0.0152
     69  NE1       53.2440   -6.7690   46.6960 N.ar  189  TRP189     -0.2442
     70  CE2       54.6010   -6.5470   46.6540 C.ar  189  TRP189      0.0810
     71  CE3       56.6480   -7.7510   47.1460 C.ar  189  TRP189      0.0012
     72  CZ2       55.3270   -5.4020   46.2950 C.ar  189  TRP189      0.0191
     73  CZ3       57.3630   -6.6160   46.7770 C.ar  189  TRP189      0.0001
     74  CH2       56.7050   -5.4640   46.3560 C.ar  189  TRP189      0.0015
     75  N         56.5250   -5.7290   51.1620 N.3   193  LEU193     -0.1245
     76  CA        55.9610   -4.3980   51.0140 C.3   193  LEU193      0.1561
     77  C         55.1960   -4.1800   52.3050 C.2   193  LEU193      0.2260
     78  O         53.9790   -4.0290   52.2750 O.2   193  LEU193     -0.2867
     79  CB        54.9980   -4.3660   49.8330 C.3   193  LEU193      0.0270
     80  CG        54.6960   -3.0310   49.1640 C.3   193  LEU193      0.0019
     81  CD1       55.8410   -2.6210   48.2360 C.3   193  LEU193      0.0001
     82  CD2       53.3840   -3.1220   48.4060 C.3   193  LEU193      0.0001
     83  N         53.7390    7.1570   44.7680 N.3   267  LEU267     -0.1245
     84  CA        52.9100    6.3750   45.7330 C.3   267  LEU267      0.1561
     85  C         53.6460    5.8690   46.9680 C.2   267  LEU267      0.2260
     86  O         54.3260    4.8430   46.8810 O.2   267  LEU267     -0.2867
     87  CB        52.2750    5.1770   45.0110 C.3   267  LEU267      0.0270
     88  CG        50.8150    5.1070   44.5230 C.3   267  LEU267      0.0019
     89  CD1       50.1540    3.9060   45.1640 C.3   267  LEU267      0.0001
     90  CD2       49.9340    6.4000   44.6680 C.3   267  LEU267      0.0001
     91  N         50.6300    0.7630   50.0530 N.3   272  VAL272     -0.1245
     92  CA        50.0970   -0.2270   49.1180 C.3   272  VAL272      0.1561
     93  C         50.4570   -1.5910   49.7210 C.2   272  VAL272      0.2260
     94  O         50.3740   -2.6310   49.0720 O.2   272  VAL272     -0.2867
     95  CB        50.6150   -0.0090   47.6450 C.3   272  VAL272      0.0252
     96  CG1       50.2890   -1.1820   46.7640 C.3   272  VAL272      0.0019
     97  CG2       49.9990    1.2370   47.0220 C.3   272  VAL272      0.0019
     98  N         47.1350   -2.5190   50.4590 N.3   275  HIS275     -0.1226
     99  CA        46.5860   -2.9230   49.1400 C.3   275  HIS275      0.1752
    100  C         46.8490   -4.3690   48.8210 C.2   275  HIS275      0.2596
    101  O         45.9080   -5.1360   48.5760 O.2   275  HIS275     -0.2718
    102  CB        47.1390   -2.1180   47.9730 C.3   275  HIS275      0.0759
    103  CG        47.0420   -2.8470   46.6670 C.ar  275  HIS275      0.0818
    104  ND1       47.5930   -4.1000   46.4720 N.ar  275  HIS275     -0.2268
    105  CD2       46.4530   -2.5140   45.4960 C.ar  275  HIS275      0.1154
    106  CE1       47.3490   -4.5060   45.2410 C.ar  275  HIS275      0.1986
    107  NE2       46.6650   -3.5590   44.6240 N.ar  275  HIS275     -0.2212
    108  N         48.1370   -4.7050   48.7430 N.am  276  HIS276     -0.1975
    109  CA        48.5370   -6.0780   48.7410 C.3   276  HIS276      0.1656
    110  C         48.4060   -6.4770   50.2150 C.2   276  HIS276      0.2291
    111  O         49.3260   -6.2570   51.0280 O.2   276  HIS276     -0.2864
    112  CB        49.9700   -6.2680   48.2550 C.3   276  HIS276      0.0771
    113  CG        50.2880   -5.6130   46.9440 C.ar  276  HIS276      0.0820
    114  ND1       50.8740   -4.3680   46.8630 N.ar  276  HIS276     -0.2267
    115  CD2       50.1730   -6.0590   45.6710 C.ar  276  HIS276      0.1154
    116  CE1       51.0660   -4.0560   45.5940 C.ar  276  HIS276      0.1986
    117  NE2       50.6510   -5.0660   44.8510 N.ar  276  HIS276     -0.2212
    118  N         43.3340   -7.4540   48.2840 N.3   279  ILE279     -0.1245
    119  CA        42.9360   -8.0880   47.0200 C.3   279  ILE279      0.1561
    120  C         42.5930   -9.5380   47.2770 C.2   279  ILE279      0.2260
    121  O         41.4960   -9.9660   46.9840 O.2   279  ILE279     -0.2867
    122  CB        43.9850   -7.9150   45.8760 C.3   279  ILE279      0.0252
    123  CG1       45.3810   -8.4020   46.2840 C.3   279  ILE279      0.0019
    124  CG2       44.0720   -6.4570   45.4730 C.3   279  ILE279      0.0019
    125  CD1       46.2880   -8.7150   45.1280 C.3   279  ILE279      0.0001
    126  N         39.6490  -13.2500   46.1690 N.3   283  PHE283     -0.1241
    127  CA        39.5320  -14.4580   45.3590 C.3   283  PHE283      0.1605
    128  C         39.2930  -15.5070   46.4220 C.2   283  PHE283      0.2264
    129  O         38.4660  -16.3760   46.2460 O.2   283  PHE283     -0.2867
    130  CB        40.7720  -14.8230   44.5370 C.3   283  PHE283      0.0534
    131  CG        41.2100  -13.7660   43.5740 C.ar  283  PHE283     -0.0203
    132  CD1       40.2990  -13.1140   42.7750 C.ar  283  PHE283     -0.0042
    133  CD2       42.5650  -13.4350   43.4640 C.ar  283  PHE283     -0.0042
    134  CE1       40.7180  -12.1220   41.9070 C.ar  283  PHE283     -0.0003
    135  CE2       43.0030  -12.4580   42.5890 C.ar  283  PHE283     -0.0003
    136  CZ        42.0750  -11.7950   41.8060 C.ar  283  PHE283     -0.0000
    137  N         44.8680   -6.1070   30.5270 N.3   343  ILE343     -0.1245
    138  CA        45.7450   -5.7700   31.6430 C.3   343  ILE343      0.1561
    139  C         46.9110   -4.9050   31.1710 C.2   343  ILE343      0.2260
    140  O         47.1420   -3.8130   31.6900 O.2   343  ILE343     -0.2867
    141  CB        46.2990   -7.0340   32.3270 C.3   343  ILE343      0.0252
    142  CG1       47.7800   -7.2180   31.9880 C.3   343  ILE343      0.0019
    143  CG2       45.4970   -8.2590   31.9140 C.3   343  ILE343      0.0019
    144  CD1       48.5540   -7.9900   33.0330 C.3   343  ILE343      0.0001
    145  N         45.6400   -1.3120   30.7700 N.3   346  LEU346     -0.1231
    146  CA        45.3080   -0.8610   32.1400 C.3   346  LEU346      0.1693
    147  C         46.5180   -1.0450   33.0770 C.2   346  LEU346      0.2591
    148  O         46.4220   -0.8030   34.2840 O.2   346  LEU346     -0.2718
    149  CB        44.0710   -1.6000   32.6950 C.3   346  LEU346      0.0284
    150  CG        42.6720   -1.1380   32.2820 C.3   346  LEU346      0.0019
    151  CD1       42.3680   -1.2660   30.7680 C.3   346  LEU346      0.0001
    152  CD2       41.6610   -1.8930   33.1050 C.3   346  LEU346      0.0001
    153  N         47.6490   -1.4860   32.5300 N.am  347  VAL347     -0.1980
    154  CA        48.8960   -1.2810   33.2270 C.3   347  VAL347      0.1595
    155  C         49.6420   -0.1670   32.5210 C.2   347  VAL347      0.2287
    156  O         50.5800    0.4420   33.0710 O.2   347  VAL347     -0.2864
    157  CB        49.7420   -2.5440   33.2840 C.3   347  VAL347      0.0276
    158  CG1       50.6870   -2.6330   32.1030 C.3   347  VAL347      0.0022
    159  CG2       50.5120   -2.5850   34.5870 C.3   347  VAL347      0.0022
    160  N         48.0240    3.2280   34.7970 N.3   350  HIS350     -0.1226
    161  CA        48.3510    2.8150   36.1550 C.3   350  HIS350      0.1752
    162  C         49.7400    2.2040   35.9140 C.2   350  HIS350      0.2595
    163  O         49.9300    1.4600   34.9550 O.2   350  HIS350     -0.2718
    164  CB        47.3630    1.8000   36.7650 C.3   350  HIS350      0.0759
    165  CG        45.9750    1.8120   36.1610 C.ar  350  HIS350      0.0818
    166  ND1       45.0510    0.8100   36.4120 N.ar  350  HIS350     -0.2268
    167  CD2       45.3630    2.6720   35.3050 C.ar  350  HIS350      0.1154
    168  CE1       43.9350    1.0550   35.7440 C.ar  350  HIS350      0.1986
    169  NE2       44.0960    2.1790   35.0680 N.ar  350  HIS350     -0.2212
    170  N         50.7220    2.5770   36.7240 N.am  351  MET351     -0.1979
    171  CA        52.1360    2.3600   36.4090 C.3   351  MET351      0.1605
    172  C         52.7590    3.7230   36.0370 C.2   351  MET351      0.2287
    173  O         53.9110    4.0190   36.3930 O.2   351  MET351     -0.2864
    174  CB        52.3210    1.3460   35.2740 C.3   351  MET351      0.0413
    175  CG        53.4270    0.3440   35.4900 C.3   351  MET351      0.0598
    176  SD        54.9210    0.9580   36.3470 S.3   351  MET351     -0.1393
    177  CE        56.0960    1.1790   35.0080 C.3   351  MET351      0.0692
    178  N         49.7250    7.2330   38.1720 N.3   354  LEU354     -0.1231
    179  CA        50.4240    7.3410   39.4350 C.3   354  LEU354      0.1678
    180  C         51.4920    6.2220   39.4680 C.2   354  LEU354      0.2434
    181  O         51.1690    5.0070   39.4220 O.2   354  LEU354     -0.2733
    182  CB        49.4600    7.3120   40.6380 C.3   354  LEU354      0.0284
    183  CG        48.3980    6.2150   40.8560 C.3   354  LEU354      0.0019
    184  CD1       47.3340    6.1810   39.7250 C.3   354  LEU354      0.0001
    185  CD2       48.9970    4.8140   41.1240 C.3   354  LEU354      0.0001
    186  N         52.7690    6.6320   39.5550 N.am  355  PRO355     -0.2718
    187  CA        53.9670    5.8090   39.4210 C.3   355  PRO355      0.1535
    188  C         53.9480    4.5770   40.3210 C.2   355  PRO355      0.2598
    189  O         52.9080    3.8560   40.4070 O.2   355  PRO355     -0.2715
    190  CB        55.0730    6.7550   39.8970 C.3   355  PRO355      0.0310
    191  CG        54.3480    7.8070   40.6730 C.3   355  PRO355      0.0237
    192  CD        53.1280    8.0100   39.8970 C.3   355  PRO355      0.0939
    193  N         55.1070    4.3400   40.9550 N.am  356  ALA356     -0.1964
    194  CA        55.2280    3.4260   42.0970 C.3   356  ALA356      0.1728
    195  C         56.6010    3.4030   42.7620 C.2   356  ALA356      0.2616
    196  O         56.8500    2.5310   43.5860 O.2   356  ALA356     -0.2715
    197  CB        54.8000    1.9820   41.7170 C.3   356  ALA356      0.0334
    198  N         57.5030    4.3230   42.4350 N.am  357  TYR357     -0.1974
    199  CA        58.8060    4.2910   43.1120 C.3   357  TYR357      0.1639
    200  C         59.7640    5.4340   42.8830 C.2   357  TYR357      0.2290
    201  O         59.4880    6.3360   42.1160 O.2   357  TYR357     -0.2864
    202  CB        59.5460    2.9780   42.8190 C.3   357  TYR357      0.0560
    203  CG        59.0230    2.1670   41.6580 C.ar  357  TYR357     -0.0198
    204  CD1       58.9440    2.7040   40.3770 C.ar  357  TYR357     -0.0009
    205  CD2       58.6120    0.8590   41.8470 C.ar  357  TYR357     -0.0009
    206  CE1       58.4610    1.9610   39.3170 C.ar  357  TYR357      0.0417
    207  CE2       58.1270    0.0980   40.7920 C.ar  357  TYR357      0.0417
    208  CZ        58.0590    0.6480   39.5290 C.ar  357  TYR357      0.1957
    209  OH        57.5740   -0.1270   38.4930 O.3   357  TYR357     -0.2866
@<TRIPOS>BOND
     1   137   138    1
     2   151   150    1
     3   145   146    1
     4   139   138    1
     5   139   140    2
     6   138   141    1
     7   143   141    1
     8   142   141    1
     9   142   144    1
    10   158   157    1
    11   146   149    1
    12   146   147    1
    13   150   149    1
    14   150   152    1
    15   155   156    2
    16   155   154    1
    17   153   147   am
    18   153   154    1
    19   147   148    2
    20   154   157    1
    21   157   159    1
    22   160   161    1
    23   163   162    2
    24   177   176    1
    25   169   167   ar
    26   169   168   ar
    27   174   175    1
    28   174   171    1
    29   167   165   ar
    30   175   176    1
    31   168   166   ar
    32   162   161    1
    33   162   170   am
    34   172   173    2
    35   172   171    1
    36   161   164    1
    37   165   166   ar
    38   165   164    1
    39   171   170    1
    40   178   179    1
    41   209   208    1
    42    48    46   ar
    43    48    47   ar
    44    13    11   ar
    45    13    14   ar
    46    46    44   ar
    47    36    35    1
    48    11     8   ar
    49    14    12   ar
    50   206   208   ar
    51   206   204   ar
    52   187   186    1
    53   187   190    1
    54   187   188    1
    55   181   180    2
    56   179   180    1
    57   179   182    1
    58   180   186   am
    59    47    45   ar
    60   208   207   ar
    61   186   192    1
    62    35    37    1
    63    35    34    1
    64   184   183    1
    65     8    10   ar
    66     8     6   ar
    67    12    10   ar
    68   192   191    1
    69   190   191    1
    70     5     6    1
    71     5     2    1
    72    10     9   ar
    73     6     7   ar
    74   188   189    2
    75   188   193   am
    76   204   203   ar
    77    44    43   ar
    78     9     7   ar
    79   182   183    1
    80   207   205   ar
    81    45    43   ar
    82   183   185    1
    83     1     2    1
    84    34    31    1
    85   193   194    1
    86     2     3    1
    87    43    42    1
    88   203   205   ar
    89   203   202    1
    90   197   194    1
    91   136   134   ar
    92   136   135   ar
    93   134   132   ar
    94   194   195    1
    95     3     4    2
    96   201   200    2
    97    31    32    1
    98    31    30    1
    99   198   195   am
   100   198   199    1
   101   135   133   ar
   102    32    33    2
   103    32    38   am
   104   195   196    2
   105   132   131   ar
   106   202   199    1
   107    42    39    1
   108    38    39    1
   109   200   199    1
   110    39    40    1
   111   133   131   ar
   112   131   130    1
   113    20    19    1
   114    88    90    1
   115    88    87    1
   116    88    89    1
   117   130   127    1
   118   107   106   ar
   119   107   105   ar
   120    83    84    1
   121    54    53    1
   122   117   116   ar
   123   117   115   ar
   124    40    41    2
   125    87    84    1
   126   125   123    1
   127   106   104   ar
   128    53    50    1
   129    19    21    1
   130    19    16    1
   131   127   126    1
   132   127   128    1
   133   124   122    1
   134   105   103   ar
   135   116   114   ar
   136   115   113   ar
   137    15    16    1
   138    84    85    1
   139   122   123    1
   140   122   119    1
   141    28    26    1
   142   129   128    2
   143    72    74   ar
   144    72    70   ar
   145    16    17    1
   146    74    73   ar
   147   104   103   ar
   148    70    69   ar
   149    70    68   ar
   150   103   102    1
   151    69    67   ar
   152    22    17   am
   153    22    23    1
   154    60    59    1
   155    96    95    1
   156    26    23    1
   157    26    27    1
   158    73    71   ar
   159    50    51    1
   160    50    49    1
   161   114   113   ar
   162    86    85    2
   163   113   112    1
   164   121   120    2
   165   119   120    1
   166   119   118    1
   167    97    95    1
   168    68    71   ar
   169    68    66   ar
   170    67    66   ar
   171    29    27    1
   172    55    51   am
   173    55    56    1
   174    17    18    2
   175    66    65    1
   176    51    52    2
   177    23    24    1
   178    95    92    1
   179    59    56    1
   180    65    62    1
   181    56    57    1
   182   102    99    1
   183    81    80    1
   184   112   109    1
   185    82    80    1
   186   101   100    2
   187   109   108    1
   188   109   110    1
   189   108   100   am
   190    24    25    2
   191   100    99    1
   192    94    93    2
   193    92    93    1
   194    92    91    1
   195    99    98    1
   196    80    79    1
   197    62    63    1
   198    62    61    1
   199    57    58    2
   200    79    76    1
   201    63    64    2
   202   110   111    2
   203    76    75    1
   204    76    77    1
   205    78    77    2
