@<TRIPOS>MOLECULE
tmp/2o01B21.pdb
 146 141 0 0 0
SMALL
GASTEIGER

@<TRIPOS>ATOM
      1  N         66.8350  -14.3590   33.1500 N.3    59  TRP59      -0.1227
      2  CA        66.6490  -13.0930   32.4400 C.3    59  TRP59       0.1737
      3  C         67.2180  -11.9580   33.2650 C.2    59  TRP59       0.2596
      4  O         67.3920  -10.8530   32.7750 O.2    59  TRP59      -0.2718
      5  CB        65.1520  -12.8440   32.2830 C.3    59  TRP59       0.0564
      6  CG        64.7000  -11.8020   31.3150 C.ar   59  TRP59       0.0003
      7  CD1       65.3170  -11.4190   30.1580 C.ar   59  TRP59       0.0946
      8  CD2       63.4730  -11.0490   31.3890 C.ar   59  TRP59       0.0152
      9  NE1       64.5620  -10.4510   29.5200 N.ar   59  TRP59      -0.2442
     10  CE2       63.4220  -10.2160   30.2490 C.ar   59  TRP59       0.0810
     11  CE3       62.4100  -11.0020   32.3050 C.ar   59  TRP59       0.0012
     12  CZ2       62.3440   -9.3440   30.0030 C.ar   59  TRP59       0.0191
     13  CZ3       61.3400  -10.1300   32.0550 C.ar   59  TRP59       0.0001
     14  CH2       61.3200   -9.3210   30.9200 C.ar   59  TRP59       0.0015
     15  N         67.5160  -12.2600   34.5200 N.am   60  THR60      -0.1953
     16  CA        67.4890  -11.2590   35.5690 C.3    60  THR60       0.1897
     17  C         68.4130  -11.5790   36.7260 C.2    60  THR60       0.2313
     18  O         69.0240  -10.6840   37.2900 O.2    60  THR60      -0.2863
     19  CB        66.0290  -11.0220   36.0860 C.3    60  THR60       0.1794
     20  OG1       66.0190   -9.9280   37.0210 O.3    60  THR60      -0.2208
     21  CG2       65.4020  -12.3190   36.6960 C.3    60  THR60       0.0378
     22  N         65.0820    0.7410   31.7450 N.3   117  SER117     -0.1202
     23  CA        64.1870   -0.3890   32.0820 C.3   117  SER117      0.2020
     24  C         63.3150   -0.1460   33.3250 C.2   117  SER117      0.2619
     25  O         62.5940   -1.0550   33.7550 O.2   117  SER117     -0.2717
     26  CB        64.9770   -1.7190   32.2200 C.3   117  SER117      0.2103
     27  OG        64.1480   -2.8660   32.0180 O.3   117  SER117     -0.2182
     28  N         63.3780    1.0740   33.8740 N.am  118  GLY118     -0.1942
     29  CA        62.6160    1.4780   35.0700 C.3   118  GLY118      0.2014
     30  C         63.0880    0.7940   36.3480 C.2   118  GLY118      0.2638
     31  O         63.7880    1.4140   37.1700 O.2   118  GLY118     -0.2714
     32  N         62.6410   -0.4570   36.5170 N.am  119  VAL119     -0.1977
     33  CA        63.2520   -1.4810   37.3770 C.3   119  VAL119      0.1596
     34  C         64.2060   -0.9840   38.4770 C.2   119  VAL119      0.2287
     35  O         63.9310   -1.1760   39.6450 O.2   119  VAL119     -0.2864
     36  CB        63.8660   -2.6580   36.4900 C.3   119  VAL119      0.0276
     37  CG1       65.2070   -3.1710   37.0090 C.3   119  VAL119      0.0022
     38  CG2       62.8970   -3.8100   36.3740 C.3   119  VAL119      0.0022
     39  N         61.6990   -0.0910   40.9230 N.3   122  TRP122     -0.1241
     40  CA        61.1570   -1.4160   41.3060 C.3   122  TRP122      0.1605
     41  C         62.1930   -2.2260   42.1010 C.2   122  TRP122      0.2264
     42  O         61.8350   -3.0910   42.9230 O.2   122  TRP122     -0.2867
     43  CB        60.6970   -2.1800   40.0360 C.3   122  TRP122      0.0550
     44  CG        60.3760   -3.6860   40.1670 C.ar  122  TRP122      0.0003
     45  CD1       61.2050   -4.6680   40.6290 C.ar  122  TRP122      0.0946
     46  CD2       59.1640   -4.3500   39.7600 C.ar  122  TRP122      0.0152
     47  NE1       60.5680   -5.8880   40.5910 N.ar  122  TRP122     -0.2442
     48  CE2       59.3180   -5.7230   40.0570 C.ar  122  TRP122      0.0810
     49  CE3       57.9580   -3.9150   39.1960 C.ar  122  TRP122      0.0012
     50  CZ2       58.3090   -6.6680   39.8070 C.ar  122  TRP122      0.0191
     51  CZ3       56.9460   -4.8660   38.9510 C.ar  122  TRP122      0.0001
     52  CH2       57.1350   -6.2210   39.2520 C.ar  122  TRP122      0.0015
     53  N         44.8110  -11.0680   29.5280 N.3   340  LEU340     -0.1245
     54  CA        46.1200  -10.5080   29.7970 C.3   340  LEU340      0.1561
     55  C         46.3630   -9.6900   28.5390 C.2   340  LEU340      0.2260
     56  O         47.4540   -9.1540   28.3440 O.2   340  LEU340     -0.2867
     57  CB        47.1880  -11.5940   30.0580 C.3   340  LEU340      0.0270
     58  CG        48.6910  -11.5580   29.6400 C.3   340  LEU340      0.0019
     59  CD1       49.3070  -10.1850   29.6170 C.3   340  LEU340      0.0001
     60  CD2       49.5520  -12.4760   30.5280 C.3   340  LEU340      0.0001
     61  N         44.8680   -6.1070   30.5270 N.3   343  ILE343     -0.1231
     62  CA        45.7450   -5.7700   31.6430 C.3   343  ILE343      0.1692
     63  C         46.9110   -4.9050   31.1710 C.2   343  ILE343      0.2592
     64  O         47.1420   -3.8130   31.6900 O.2   343  ILE343     -0.2718
     65  CB        46.2990   -7.0340   32.3270 C.3   343  ILE343      0.0266
     66  CG1       47.7800   -7.2180   31.9880 C.3   343  ILE343      0.0019
     67  CG2       45.4970   -8.2590   31.9140 C.3   343  ILE343      0.0020
     68  CD1       48.5540   -7.9900   33.0330 C.3   343  ILE343      0.0001
     69  N         47.6400   -5.4080   30.1800 N.am  344  THR344     -0.1953
     70  CA        48.6940   -4.6310   29.4840 C.3   344  THR344      0.1897
     71  C         48.4300   -3.0780   29.2570 C.2   344  THR344      0.2313
     72  O         49.3670   -2.2360   29.2500 O.2   344  THR344     -0.2863
     73  CB        48.9560   -5.2750   28.0840 C.3   344  THR344      0.1794
     74  OG1       47.7430   -5.8590   27.5900 O.3   344  THR344     -0.2208
     75  CG2       50.0080   -6.3410   28.1420 C.3   344  THR344      0.0378
     76  N         47.6490   -1.4860   32.5300 N.3   347  VAL347     -0.1245
     77  CA        48.8960   -1.2810   33.2270 C.3   347  VAL347      0.1561
     78  C         49.6420   -0.1670   32.5210 C.2   347  VAL347      0.2260
     79  O         50.5800    0.4420   33.0710 O.2   347  VAL347     -0.2867
     80  CB        49.7420   -2.5440   33.2840 C.3   347  VAL347      0.0252
     81  CG1       50.6870   -2.6330   32.1030 C.3   347  VAL347      0.0019
     82  CG2       50.5120   -2.5850   34.5870 C.3   347  VAL347      0.0019
     83  N         50.7220    2.5770   36.7240 N.3   351  MET351     -0.1245
     84  CA        52.1360    2.3600   36.4090 C.3   351  MET351      0.1570
     85  C         52.7590    3.7230   36.0370 C.2   351  MET351      0.2261
     86  O         53.9110    4.0190   36.3930 O.2   351  MET351     -0.2867
     87  CB        52.3210    1.3460   35.2740 C.3   351  MET351      0.0387
     88  CG        53.4270    0.3440   35.4900 C.3   351  MET351      0.0595
     89  SD        54.9210    0.9580   36.3470 S.3   351  MET351     -0.1393
     90  CE        56.0960    1.1790   35.0080 C.3   351  MET351      0.0692
     91  N         57.5030    4.3230   42.4350 N.3   357  TYR357     -0.1241
     92  CA        58.8060    4.2910   43.1120 C.3   357  TYR357      0.1605
     93  C         59.7640    5.4340   42.8830 C.2   357  TYR357      0.2264
     94  O         59.4880    6.3360   42.1160 O.2   357  TYR357     -0.2867
     95  CB        59.5460    2.9780   42.8190 C.3   357  TYR357      0.0534
     96  CG        59.0230    2.1670   41.6580 C.ar  357  TYR357     -0.0201
     97  CD1       58.9440    2.7040   40.3770 C.ar  357  TYR357     -0.0009
     98  CD2       58.6120    0.8590   41.8470 C.ar  357  TYR357     -0.0009
     99  CE1       58.4610    1.9610   39.3170 C.ar  357  TYR357      0.0417
    100  CE2       58.1270    0.0980   40.7920 C.ar  357  TYR357      0.0417
    101  CZ        58.0590    0.6480   39.5290 C.ar  357  TYR357      0.1957
    102  OH        57.5740   -0.1270   38.4930 O.3   357  TYR357     -0.2866
    103  N         59.7810    2.5780   29.5600 N.3   370  LEU370     -0.1245
    104  CA        58.8460    1.6280   30.1810 C.3   370  LEU370      0.1561
    105  C         57.3440    1.8150   29.9620 C.2   370  LEU370      0.2260
    106  O         56.5430    1.3510   30.8000 O.2   370  LEU370     -0.2867
    107  CB        59.0670    1.6030   31.6840 C.3   370  LEU370      0.0270
    108  CG        59.8460    0.4620   32.3250 C.3   370  LEU370      0.0019
    109  CD1       59.9600    0.7910   33.7970 C.3   370  LEU370      0.0001
    110  CD2       59.1780   -0.8820   32.1390 C.3   370  LEU370      0.0001
    111  N         56.5000    0.1060   24.8620 N.3   373  HIS373     -0.1226
    112  CA        56.7490   -1.2340   25.3610 C.3   373  HIS373      0.1752
    113  C         55.4880   -1.8270   25.9980 C.2   373  HIS373      0.2596
    114  O         54.7150   -2.5250   25.3430 O.2   373  HIS373     -0.2718
    115  CB        57.8480   -1.1710   26.4190 C.3   373  HIS373      0.0759
    116  CG        58.1010   -2.4730   27.0990 C.ar  373  HIS373      0.0818
    117  ND1       57.2650   -3.5620   26.9550 N.ar  373  HIS373     -0.2268
    118  CD2       59.0810   -2.8580   27.9470 C.ar  373  HIS373      0.1154
    119  CE1       57.7220   -4.5640   27.6810 C.ar  373  HIS373      0.1986
    120  NE2       58.8230   -4.1650   28.2950 N.ar  373  HIS373     -0.2212
    121  N         55.2770   -1.5470   27.2770 N.am  374  HIS374     -0.1975
    122  CA        54.1470   -2.1310   27.9530 C.3   374  HIS374      0.1656
    123  C         52.9000   -1.8640   27.1560 C.2   374  HIS374      0.2291
    124  O         51.8240   -2.3460   27.5060 O.2   374  HIS374     -0.2864
    125  CB        54.0150   -1.6180   29.3840 C.3   374  HIS374      0.0771
    126  CG        54.9700   -2.2620   30.3310 C.ar  374  HIS374      0.0820
    127  ND1       56.1510   -2.8330   29.9100 N.ar  374  HIS374     -0.2267
    128  CD2       54.9370   -2.4130   31.6740 C.ar  374  HIS374      0.1154
    129  CE1       56.8000   -3.3130   30.9490 C.ar  374  HIS374      0.1986
    130  NE2       56.0860   -3.0680   32.0320 N.ar  374  HIS374     -0.2212
    131  N         52.7040   -4.7540   23.6350 N.3   377  ILE377     -0.1245
    132  CA        52.3080   -6.1050   23.8860 C.3   377  ILE377      0.1561
    133  C         50.8030   -6.0990   24.0700 C.2   377  ILE377      0.2260
    134  O         50.1180   -7.0430   23.6730 O.2   377  ILE377     -0.2867
    135  CB        53.0820   -6.6520   25.0660 C.3   377  ILE377      0.0252
    136  CG1       54.5460   -6.2300   24.9360 C.3   377  ILE377      0.0019
    137  CG2       52.9870   -8.1500   25.1210 C.3   377  ILE377      0.0019
    138  CD1       55.1540   -6.5440   23.5730 C.3   377  ILE377      0.0001
    139  N         50.0700   -8.9360   22.2460 N.3   381  ILE381     -0.1245
    140  CA        49.2960   -9.8890   23.0050 C.3   381  ILE381      0.1561
    141  C         47.8640   -9.5970   22.6350 C.2   381  ILE381      0.2260
    142  O         47.2250  -10.4360   22.0130 O.2   381  ILE381     -0.2867
    143  CB        49.5930   -9.8150   24.5040 C.3   381  ILE381      0.0252
    144  CG1       51.0650  -10.1790   24.7260 C.3   381  ILE381      0.0019
    145  CG2       48.7060  -10.7780   25.2820 C.3   381  ILE381      0.0019
    146  CD1       51.5330  -10.1410   26.1570 C.3   381  ILE381      0.0001
@<TRIPOS>BOND
     1   142   141    2
     2   139   140    1
     3   141   140    1
     4   140   143    1
     5   138   136    1
     6   131   132    1
     7   134   133    2
     8   132   133    1
     9   132   135    1
    10   143   144    1
    11   143   145    1
    12   144   146    1
    13   111   112    1
    14   136   135    1
    15   135   137    1
    16   114   113    2
    17   112   113    1
    18   112   115    1
    19   113   121   am
    20   115   116    1
    21   117   116   ar
    22   117   119   ar
    23   116   118   ar
    24   123   124    2
    25   123   122    1
    26   121   122    1
    27    74    73    1
    28   119   120   ar
    29   118   120   ar
    30   122   125    1
    31    73    75    1
    32    73    70    1
    33    56    55    2
    34    55    54    1
    35    72    71    2
    36    71    70    1
    37   125   126    1
    38    70    69    1
    39     9     7   ar
    40     9    10   ar
    41    53    54    1
    42   103   104    1
    43    59    58    1
    44    58    57    1
    45    58    60    1
    46    54    57    1
    47   127   126   ar
    48   127   129   ar
    49   105   104    1
    50   105   106    2
    51    12    10   ar
    52    12    14   ar
    53     7     6   ar
    54    69    63   am
    55   104   107    1
    56    10     8   ar
    57   126   128   ar
    58    61    62    1
    59    14    13   ar
    60   129   130   ar
    61    63    62    1
    62    63    64    2
    63     6     8   ar
    64     6     5    1
    65     8    11   ar
    66    62    65    1
    67   128   130   ar
    68   107   108    1
    69    22    23    1
    70    67    65    1
    71    66    65    1
    72    66    68    1
    73    27    26    1
    74    13    11   ar
    75    23    26    1
    76    23    24    1
    77    81    80    1
    78   110   108    1
    79     5     2    1
    80   108   109    1
    81     2     1    1
    82     2     3    1
    83    78    79    2
    84    78    77    1
    85    76    77    1
    86     4     3    2
    87    77    80    1
    88     3    15   am
    89    80    82    1
    90    24    25    2
    91    24    28   am
    92    28    29    1
    93    15    16    1
    94    90    89    1
    95    29    30    1
    96    87    88    1
    97    87    84    1
    98    88    89    1
    99    16    19    1
   100    16    17    1
   101    85    86    2
   102    85    84    1
   103    19    21    1
   104    19    20    1
   105    30    32   am
   106    30    31    2
   107    38    36    1
   108    84    83    1
   109    36    37    1
   110    36    33    1
   111    32    33    1
   112    17    18    2
   113    33    34    1
   114    34    35    2
   115   102   101    1
   116    51    49   ar
   117    51    52   ar
   118    49    46   ar
   119    52    50   ar
   120    99   101   ar
   121    99    97   ar
   122   101   100   ar
   123    46    48   ar
   124    46    44   ar
   125    50    48   ar
   126    43    44    1
   127    43    40    1
   128    48    47   ar
   129    44    45   ar
   130    97    96   ar
   131    47    45   ar
   132   100    98   ar
   133    39    40    1
   134    40    41    1
   135    96    98   ar
   136    96    95    1
   137    41    42    2
   138    94    93    2
   139    91    92    1
   140    95    92    1
   141    93    92    1
