@<TRIPOS>MOLECULE
tmp/2o01B30.pdb
 134 134 0 0 0
SMALL
GASTEIGER

@<TRIPOS>ATOM
      1  N         30.5780   -0.0560    9.7680 N.3   423  TRP423     -0.1241
      2  CA        29.8700    1.2030    9.9030 C.3   423  TRP423      0.1605
      3  C         30.4170    1.8870   11.1650 C.2   423  TRP423      0.2264
      4  O         30.4120    3.1220   11.2920 O.2   423  TRP423     -0.2867
      5  CB        28.3310    1.0800    9.8720 C.3   423  TRP423      0.0550
      6  CG        27.7580    2.4660    9.6840 C.ar  423  TRP423      0.0003
      7  CD1       27.6680    3.1630    8.5080 C.ar  423  TRP423      0.0946
      8  CD2       27.3280    3.3760   10.7210 C.ar  423  TRP423      0.0152
      9  NE1       27.1760    4.4200    8.7440 N.ar  423  TRP423     -0.2442
     10  CE2       26.9610    4.5800   10.0910 C.ar  423  TRP423      0.0810
     11  CE3       27.2140    3.2820   12.1190 C.ar  423  TRP423      0.0012
     12  CZ2       26.4790    5.6890   10.8090 C.ar  423  TRP423      0.0191
     13  CZ3       26.7320    4.3900   12.8310 C.ar  423  TRP423      0.0001
     14  CH2       26.3730    5.5710   12.1740 C.ar  423  TRP423      0.0015
     15  N         33.1570    6.4140    8.8260 N.3   427  PHE427     -0.1227
     16  CA        32.5690    7.1200    9.9920 C.3   427  PHE427      0.1736
     17  C         33.4300    6.7130   11.2080 C.2   427  PHE427      0.2595
     18  O         33.2620    5.6290   11.7660 O.2   427  PHE427     -0.2718
     19  CB        31.1020    6.7450   10.2020 C.3   427  PHE427      0.0547
     20  CG        30.4370    7.4260   11.3690 C.ar  427  PHE427     -0.0202
     21  CD1       29.4960    6.7290   12.1470 C.ar  427  PHE427     -0.0042
     22  CD2       30.7170    8.7450   11.6950 C.ar  427  PHE427     -0.0042
     23  CE1       28.8410    7.3510   13.2280 C.ar  427  PHE427     -0.0003
     24  CE2       30.0820    9.3690   12.7740 C.ar  427  PHE427     -0.0003
     25  CZ        29.1460    8.6630   13.5480 C.ar  427  PHE427     -0.0000
     26  N         34.3180    7.6170   11.6260 N.am  428  LEU428     -0.1980
     27  CA        35.6530    7.2740   12.1570 C.3   428  LEU428      0.1596
     28  C         36.4800    6.9110   10.9220 C.2   428  LEU428      0.2287
     29  O         37.5930    6.4050   11.0040 O.2   428  LEU428     -0.2864
     30  CB        35.6260    6.1810   13.2270 C.3   428  LEU428      0.0297
     31  CG        35.2170    6.5520   14.6790 C.3   428  LEU428      0.0022
     32  CD1       33.9310    7.3930   14.7670 C.3   428  LEU428      0.0001
     33  CD2       35.0540    5.3010   15.5540 C.3   428  LEU428      0.0001
     34  N         36.2280   21.0160   16.9710 N.3   454  ILE454     -0.1245
     35  CA        35.1690   20.9010   17.9880 C.3   454  ILE454      0.1561
     36  C         35.7190   20.2340   19.2760 C.2   454  ILE454      0.2260
     37  O         36.0960   19.0420   19.3030 O.2   454  ILE454     -0.2867
     38  CB        33.7550   20.3110   17.4850 C.3   454  ILE454      0.0252
     39  CG1       33.4440   18.9220   18.0580 C.3   454  ILE454      0.0019
     40  CG2       33.5920   20.3350   15.9650 C.3   454  ILE454      0.0019
     41  CD1       31.9750   18.7290   18.3610 C.3   454  ILE454      0.0001
     42  N         36.0910   18.4950   22.6670 N.3   456  PRO456     -0.2102
     43  CA        35.5280   17.4530   23.4930 C.3   456  PRO456      0.1504
     44  C         34.7100   18.0600   24.5860 C.2   456  PRO456      0.2576
     45  O         35.2340   18.9090   25.3170 O.2   456  PRO456     -0.2718
     46  CB        36.7620   16.8270   24.1390 C.3   456  PRO456      0.0282
     47  CG        37.8470   17.0340   23.1820 C.3   456  PRO456      0.0208
     48  CD        37.4080   18.0920   22.1670 C.3   456  PRO456      0.0893
     49  N         33.4470   17.6430   24.6880 N.am  457  ILE457     -0.1966
     50  CA        32.5760   18.0500   25.8030 C.3   457  ILE457      0.1727
     51  C         32.3480   16.9730   26.9090 C.2   457  ILE457      0.2616
     52  O         31.8520   17.3110   27.9930 O.2   457  ILE457     -0.2715
     53  CB        31.2440   18.7310   25.2930 C.3   457  ILE457      0.0290
     54  CG1       29.9970   18.2110   26.0240 C.3   457  ILE457      0.0022
     55  CG2       31.0830   18.5690   23.7880 C.3   457  ILE457      0.0023
     56  CD1       29.5190   19.0880   27.1220 C.3   457  ILE457      0.0001
     57  N         32.7720   15.7180   26.6650 N.am  458  PHE458     -0.1960
     58  CA        32.3080   14.5520   27.4600 C.3   458  PHE458      0.1771
     59  C         33.2600   13.9090   28.4720 C.2   458  PHE458      0.2619
     60  O         32.8500   13.6560   29.6150 O.2   458  PHE458     -0.2715
     61  CB        31.7840   13.4370   26.5560 C.3   458  PHE458      0.0574
     62  CG        30.3590   13.5890   26.1490 C.ar  458  PHE458     -0.0200
     63  CD1       29.8530   14.8100   25.7670 C.ar  458  PHE458     -0.0042
     64  CD2       29.5310   12.4750   26.0860 C.ar  458  PHE458     -0.0042
     65  CE1       28.5450   14.9250   25.3570 C.ar  458  PHE458     -0.0003
     66  CE2       28.2050   12.5730   25.6760 C.ar  458  PHE458     -0.0003
     67  CZ        27.7180   13.7920   25.3070 C.ar  458  PHE458     -0.0000
     68  N         34.4900   13.5900   28.0640 N.am  459  ALA459     -0.1977
     69  CA        35.3520   12.8010   28.9540 C.3   459  ALA459      0.1597
     70  C         35.3230   13.5890   30.2170 C.2   459  ALA459      0.2287
     71  O         34.8670   13.0930   31.2420 O.2   459  ALA459     -0.2864
     72  CB        36.7430   12.6820   28.4280 C.3   459  ALA459      0.0319
     73  N         43.2010   17.8550   29.9580 N.3   511  ILE511     -0.1245
     74  CA        42.4880   17.8050   28.6340 C.3   511  ILE511      0.1561
     75  C         42.4320   19.0380   27.7510 C.2   511  ILE511      0.2260
     76  O         41.7240   19.9960   28.0480 O.2   511  ILE511     -0.2867
     77  CB        41.0360   17.2880   28.6810 C.3   511  ILE511      0.0252
     78  CG1       40.8970   15.9790   29.4500 C.3   511  ILE511      0.0019
     79  CG2       40.5170   17.0600   27.2590 C.3   511  ILE511      0.0019
     80  CD1       39.3870   15.5730   29.6650 C.3   511  ILE511      0.0001
     81  N         42.5480   16.8300   21.5490 N.3   515  ASP515     -0.1225
     82  CA        42.5360   15.7070   22.4560 C.3   515  ASP515      0.1805
     83  C         41.6790   14.5320   22.0250 C.2   515  ASP515      0.2597
     84  O         42.0590   13.3810   22.2370 O.2   515  ASP515     -0.2718
     85  CB        41.9860   16.1830   23.7820 C.3   515  ASP515      0.1424
     86  CG        43.0520   16.7340   24.6440 C.2   515  ASP515      0.3668
     87  OD1       43.8800   17.5380   24.1340 O.co2 515  ASP515     -0.2456
     88  OD2       43.0780   16.3390   25.8270 O.co2 515  ASP515     -0.2456
     89  N         40.4960   14.8120   21.4880 N.am  516  PHE516     -0.1976
     90  CA        39.7480   13.7270   20.9030 C.3   516  PHE516      0.1639
     91  C         40.0370   13.5160   19.4110 C.2   516  PHE516      0.2290
     92  O         39.8610   12.4280   18.8910 O.2   516  PHE516     -0.2864
     93  CB        38.2730   13.6900   21.3510 C.3   516  PHE516      0.0560
     94  CG        37.3100   14.4890   20.5210 C.ar  516  PHE516     -0.0200
     95  CD1       37.6570   15.0480   19.3190 C.ar  516  PHE516     -0.0042
     96  CD2       35.9900   14.5990   20.9540 C.ar  516  PHE516     -0.0042
     97  CE1       36.7310   15.7400   18.5860 C.ar  516  PHE516     -0.0003
     98  CE2       35.0440   15.2780   20.2130 C.ar  516  PHE516     -0.0003
     99  CZ        35.4180   15.8610   19.0310 C.ar  516  PHE516     -0.0000
    100  N         41.8730   11.0490   20.1660 N.3   519  HIS519     -0.1226
    101  CA        41.0660   10.1300   20.9530 C.3   519  HIS519      0.1752
    102  C         40.0410    9.4730   20.0410 C.2   519  HIS519      0.2596
    103  O         40.0720    8.2500   19.8710 O.2   519  HIS519     -0.2718
    104  CB        40.4750   10.7890   22.2150 C.3   519  HIS519      0.0759
    105  CG        41.2580   10.4960   23.4620 C.ar  519  HIS519      0.0818
    106  ND1       42.4770   11.0770   23.7330 N.ar  519  HIS519     -0.2268
    107  CD2       41.0010    9.6610   24.4990 C.ar  519  HIS519      0.1154
    108  CE1       42.9300   10.6250   24.8880 C.ar  519  HIS519      0.1986
    109  NE2       42.0500    9.7710   25.3760 N.ar  519  HIS519     -0.2212
    110  N         39.1780   10.2670   19.4180 N.am  520  HIS520     -0.1975
    111  CA        38.4040    9.7460   18.3090 C.3   520  HIS520      0.1656
    112  C         39.3310    8.8530   17.4710 C.2   520  HIS520      0.2291
    113  O         39.3540    7.6650   17.7090 O.2   520  HIS520     -0.2864
    114  CB        37.7510   10.8630   17.4980 C.3   520  HIS520      0.0771
    115  CG        36.3860   11.2440   17.9800 C.ar  520  HIS520      0.0820
    116  ND1       36.1550   11.7240   19.2510 N.ar  520  HIS520     -0.2267
    117  CD2       35.1790   11.2030   17.3660 C.ar  520  HIS520      0.1154
    118  CE1       34.8640   11.9610   19.3980 C.ar  520  HIS520      0.1986
    119  NE2       34.2480   11.6460   18.2720 N.ar  520  HIS520     -0.2212
    120  N         39.5370    5.6670   18.8230 N.3   523  ALA523     -0.1245
    121  CA        38.3000    4.8970   18.6080 C.3   523  ALA523      0.1562
    122  C         37.8700    4.8000   17.1010 C.2   523  ALA523      0.2260
    123  O         36.7150    4.4570   16.7910 O.2   523  ALA523     -0.2867
    124  CB        37.1610    5.4310   19.4760 C.3   523  ALA523      0.0290
    125  N         38.2660   -0.4720   15.8050 N.3   527  HIS527     -0.1241
    126  CA        37.0540   -0.9000   15.0440 C.3   527  HIS527      0.1621
    127  C         37.3620   -1.3150   13.5960 C.2   527  HIS527      0.2264
    128  O         36.4550   -1.3690   12.7550 O.2   527  HIS527     -0.2867
    129  CB        36.1090    0.2770   14.8180 C.3   527  HIS527      0.0745
    130  CG        35.4440    0.8340   16.0320 C.ar  527  HIS527      0.0817
    131  ND1       35.9530    1.9080   16.7240 N.ar  527  HIS527     -0.2268
    132  CD2       34.2390    0.5600   16.5910 C.ar  527  HIS527      0.1154
    133  CE1       35.1180    2.2290   17.6970 C.ar  527  HIS527      0.1986
    134  NE2       34.0680    1.4300   17.6370 N.ar  527  HIS527     -0.2212
@<TRIPOS>BOND
     1     7     9   ar
     2     7     6   ar
     3     9    10   ar
     4    15    16    1
     5     6     5    1
     6     6     8   ar
     7     1     2    1
     8     5     2    1
     9     2     3    1
    10    16    19    1
    11    16    17    1
    12    10     8   ar
    13    10    12   ar
    14    19    20    1
    15     8    11   ar
    16    12    14   ar
    17    28    29    2
    18    28    27    1
    19     3     4    2
    20    17    26   am
    21    17    18    2
    22    20    22   ar
    23    20    21   ar
    24    26    27    1
    25    22    24   ar
    26    11    13   ar
    27    21    23   ar
    28    27    30    1
    29    14    13   ar
    30   128   127    2
    31    24    25   ar
    32    30    31    1
    33    23    25   ar
    34   127   126    1
    35    31    32    1
    36    31    33    1
    37   129   126    1
    38   129   130    1
    39   126   125    1
    40    40    38    1
    41   130   132   ar
    42   130   131   ar
    43   132   134   ar
    44   131   133   ar
    45   123   122    2
    46    34    35    1
    47   122   121    1
    48   117   115   ar
    49   117   119   ar
    50   112   113    2
    51   112   111    1
    52    38    35    1
    53    38    39    1
    54   114   115    1
    55   114   111    1
    56   134   133   ar
    57   115   116   ar
    58    35    36    1
    59    39    41    1
    60   119   118   ar
    61   111   110    1
    62    97    99   ar
    63    97    95   ar
    64   121   120    1
    65   121   124    1
    66    92    91    2
    67    99    98   ar
    68   116   118   ar
    69    36    37    2
    70    95    94   ar
    71    91    90    1
    72   110   102   am
    73   103   102    2
    74   102   101    1
    75   100   101    1
    76    98    96   ar
    77    94    96   ar
    78    94    93    1
    79    90    93    1
    80    90    89    1
    81   101   104    1
    82    89    83   am
    83    81    82    1
    84    83    84    2
    85    83    82    1
    86    48    42    1
    87    48    47    1
    88   104   105    1
    89    82    85    1
    90    42    43    1
    91    47    46    1
    92   105   106   ar
    93   105   107   ar
    94    43    46    1
    95    43    44    1
    96   106   108   ar
    97    85    86    1
    98    55    53    1
    99    87    86   ar
   100   107   109   ar
   101    44    49   am
   102    44    45    2
   103    86    88   ar
   104    49    50    1
   105   108   109   ar
   106    53    50    1
   107    53    54    1
   108    67    65   ar
   109    67    66   ar
   110    65    63   ar
   111    66    64   ar
   112    63    62   ar
   113    50    51    1
   114    54    56    1
   115    64    62   ar
   116    62    61    1
   117    61    58    1
   118    57    51   am
   119    57    58    1
   120    51    52    2
   121    79    77    1
   122    58    59    1
   123    75    76    2
   124    75    74    1
   125    68    59   am
   126    68    69    1
   127    72    69    1
   128    59    60    2
   129    74    77    1
   130    74    73    1
   131    77    78    1
   132    69    70    1
   133    78    80    1
   134    70    71    2
