@<TRIPOS>MOLECULE
tmp/2o01A09.pdb
 133 126 0 0 0
SMALL
GASTEIGER

@<TRIPOS>ATOM
      1  N         46.4110   21.9530  -25.2510 N.3    62  TRP62      -0.1241
      2  CA        47.4140   22.4160  -24.3410 C.3    62  TRP62       0.1605
      3  C         47.8390   23.7590  -24.8780 C.2    62  TRP62       0.2264
      4  O         47.0220   24.6680  -25.0230 O.2    62  TRP62      -0.2867
      5  CB        48.6070   21.4810  -24.3680 C.3    62  TRP62       0.0550
      6  CG        49.4110   21.5320  -23.1730 C.ar   62  TRP62       0.0003
      7  CD1       48.9540   21.5280  -21.9110 C.ar   62  TRP62       0.0946
      8  CD2       50.8440   21.5530  -23.0930 C.ar   62  TRP62       0.0152
      9  NE1       49.9950   21.5580  -21.0350 N.ar   62  TRP62      -0.2442
     10  CE2       51.1750   21.5810  -21.7320 C.ar   62  TRP62       0.0810
     11  CE3       51.8890   21.5580  -24.0470 C.ar   62  TRP62       0.0012
     12  CZ2       52.5260   21.6130  -21.2740 C.ar   62  TRP62       0.0191
     13  CZ3       53.2430   21.5990  -23.5940 C.ar   62  TRP62       0.0001
     14  CH2       53.5360   21.6170  -22.2250 C.ar   62  TRP62       0.0015
     15  N         59.3970   26.5750  -14.4610 N.3   117  SER117     -0.1217
     16  CA        59.5050   26.1180  -15.8540 C.3   117  SER117      0.1889
     17  C         59.4730   27.3010  -16.8200 C.2   117  SER117      0.2288
     18  O         58.4030   27.8890  -17.0530 O.2   117  SER117     -0.2866
     19  CB        58.4510   25.0970  -16.2090 C.3   117  SER117      0.2089
     20  OG        58.5810   24.0040  -15.3340 O.3   117  SER117     -0.2183
     21  N         59.3780   29.3110  -20.0820 N.3   119  PHE119     -0.1241
     22  CA        58.2470   29.9880  -20.7550 C.3   119  PHE119      0.1605
     23  C         58.4720   31.5180  -20.8930 C.2   119  PHE119      0.2264
     24  O         58.6810   32.0180  -21.9960 O.2   119  PHE119     -0.2867
     25  CB        56.9100   29.6540  -20.0700 C.3   119  PHE119      0.0534
     26  CG        56.0230   28.7140  -20.8480 C.ar  119  PHE119     -0.0203
     27  CD1       56.5470   27.8050  -21.7590 C.ar  119  PHE119     -0.0042
     28  CD2       54.6420   28.7200  -20.6350 C.ar  119  PHE119     -0.0042
     29  CE1       55.6960   26.9160  -22.4720 C.ar  119  PHE119     -0.0003
     30  CE2       53.8000   27.8510  -21.3310 C.ar  119  PHE119     -0.0003
     31  CZ        54.3300   26.9410  -22.2510 C.ar  119  PHE119     -0.0000
     32  N         61.3200   30.9400  -22.2910 N.3   122  ILE122     -0.1245
     33  CA        61.0330   30.3880  -23.6360 C.3   122  ILE122      0.1561
     34  C         60.5530   31.4420  -24.6650 C.2   122  ILE122      0.2260
     35  O         60.9220   31.3740  -25.8420 O.2   122  ILE122     -0.2867
     36  CB        60.0420   29.1980  -23.5630 C.3   122  ILE122      0.0252
     37  CG1       60.7840   27.9490  -23.0710 C.3   122  ILE122      0.0019
     38  CG2       59.3190   28.9870  -24.9170 C.3   122  ILE122      0.0019
     39  CD1       59.9250   26.9730  -22.3010 C.3   122  ILE122      0.0001
     40  N         63.3880    7.8180  -27.9830 N.3   335  LEU335     -0.1245
     41  CA        62.6370    8.8950  -27.4010 C.3   335  LEU335      0.1561
     42  C         62.9250    8.8510  -25.9050 C.2   335  LEU335      0.2260
     43  O         62.8880    9.8790  -25.2230 O.2   335  LEU335     -0.2867
     44  CB        61.1540    8.6800  -27.6600 C.3   335  LEU335      0.0270
     45  CG        60.2930    9.9270  -27.5180 C.3   335  LEU335      0.0019
     46  CD1       61.0480   11.1570  -28.0400 C.3   335  LEU335      0.0001
     47  CD2       58.9130    9.7890  -28.1910 C.3   335  LEU335      0.0001
     48  N         65.9650   10.3130  -25.1290 N.3   338  LEU338     -0.1231
     49  CA        65.4960   11.5740  -25.7190 C.3   338  LEU338      0.1693
     50  C         64.3920   12.1820  -24.8330 C.2   338  LEU338      0.2592
     51  O         63.5320   12.9910  -25.2630 O.2   338  LEU338     -0.2718
     52  CB        65.0820   11.4490  -27.1860 C.3   338  LEU338      0.0284
     53  CG        65.5950   12.5890  -28.0790 C.3   338  LEU338      0.0019
     54  CD1       65.3140   13.9830  -27.5020 C.3   338  LEU338      0.0001
     55  CD2       67.0960   12.4300  -28.4290 C.3   338  LEU338      0.0001
     56  N         64.4070   11.7400  -23.5800 N.am  339  THR339     -0.1953
     57  CA        64.1970   12.7050  -22.5220 C.3   339  THR339      0.1897
     58  C         64.8500   12.4250  -21.1560 C.2   339  THR339      0.2313
     59  O         64.2060   12.1280  -20.1480 O.2   339  THR339     -0.2863
     60  CB        62.8440   13.4350  -22.6130 C.3   339  THR339      0.1794
     61  OG1       62.7500   14.4260  -21.5780 O.3   339  THR339     -0.2208
     62  CG2       61.6870   12.4410  -22.6140 C.3   339  THR339      0.0378
     63  N         68.2960   15.5240  -23.5360 N.3   342  VAL342     -0.1245
     64  CA        67.9470   16.9240  -23.5590 C.3   342  VAL342      0.1561
     65  C         68.0040   17.4530  -22.1320 C.2   342  VAL342      0.2260
     66  O         68.3610   18.5950  -21.8950 O.2   342  VAL342     -0.2867
     67  CB        66.5150   17.1100  -24.1450 C.3   342  VAL342      0.0252
     68  CG1       66.5520   17.3800  -25.6510 C.3   342  VAL342      0.0019
     69  CG2       65.6390   15.8790  -23.8540 C.3   342  VAL342      0.0019
     70  N         70.0760   20.3210  -21.0330 N.3   346  MET346     -0.1245
     71  CA        69.5270   21.6840  -20.9210 C.3   346  MET346      0.1570
     72  C         70.2170   22.4830  -19.8200 C.2   346  MET346      0.2261
     73  O         71.0710   23.3330  -20.1310 O.2   346  MET346     -0.2867
     74  CB        68.0020   21.6450  -20.7100 C.3   346  MET346      0.0387
     75  CG        67.2310   22.9060  -21.1270 C.3   346  MET346      0.0595
     76  SD        65.8560   22.5690  -22.2830 S.3   346  MET346     -0.1393
     77  CE        65.5860   20.7910  -22.0900 C.3   346  MET346      0.0692
     78  N         67.5230   29.1780  -24.0190 N.3   352  TYR352     -0.1241
     79  CA        66.8760   30.5160  -23.8920 C.3   352  TYR352      0.1605
     80  C         67.3660   31.4550  -22.7530 C.2   352  TYR352      0.2264
     81  O         67.6950   30.9880  -21.6390 O.2   352  TYR352     -0.2867
     82  CB        65.3530   30.4060  -23.7870 C.3   352  TYR352      0.0534
     83  CG        64.6860   29.1650  -24.3460 C.ar  352  TYR352     -0.0201
     84  CD1       65.0950   27.8700  -23.9690 C.ar  352  TYR352     -0.0009
     85  CD2       63.5990   29.2730  -25.2140 C.ar  352  TYR352     -0.0009
     86  CE1       64.4560   26.7220  -24.4850 C.ar  352  TYR352      0.0417
     87  CE2       62.9560   28.1290  -25.7270 C.ar  352  TYR352      0.0417
     88  CZ        63.3830   26.8670  -25.3560 C.ar  352  TYR352      0.1957
     89  OH        62.7310   25.7620  -25.8570 O.3   352  TYR352     -0.2866
     90  N         62.2390   22.1390  -13.9520 N.3   365  LEU365     -0.1245
     91  CA        62.3140   21.6260  -15.3100 C.3   365  LEU365      0.1561
     92  C         63.1680   20.3760  -15.3740 C.2   365  LEU365      0.2260
     93  O         62.6470   19.2660  -15.5180 O.2   365  LEU365     -0.2867
     94  CB        62.8870   22.7170  -16.2370 C.3   365  LEU365      0.0270
     95  CG        61.8220   23.5590  -16.9550 C.3   365  LEU365      0.0019
     96  CD1       62.3940   24.8250  -17.5440 C.3   365  LEU365      0.0001
     97  CD2       61.0880   22.7260  -18.0390 C.3   365  LEU365      0.0001
     98  N         60.9850   16.3080  -14.0870 N.3   368  HIS368     -0.1226
     99  CA        59.9650   16.1110  -15.1060 C.3   368  HIS368      0.1752
    100  C         60.5590   15.8160  -16.4880 C.2   368  HIS368      0.2596
    101  O         60.3690   14.7350  -17.0480 O.2   368  HIS368     -0.2718
    102  CB        59.1310   17.3730  -15.1880 C.3   368  HIS368      0.0759
    103  CG        58.3120   17.4600  -16.4170 C.ar  368  HIS368      0.0818
    104  ND1       56.9380   17.5140  -16.3850 N.ar  368  HIS368     -0.2268
    105  CD2       58.6710   17.4970  -17.7240 C.ar  368  HIS368      0.1154
    106  CE1       56.4810   17.5930  -17.6250 C.ar  368  HIS368      0.1986
    107  NE2       57.5130   17.5810  -18.4550 N.ar  368  HIS368     -0.2212
    108  N         61.2590   16.8030  -17.0390 N.am  369  HIS369     -0.1975
    109  CA        62.1780   16.5730  -18.1500 C.3   369  HIS369      0.1656
    110  C         63.2320   15.5110  -17.8430 C.2   369  HIS369      0.2291
    111  O         64.2810   15.5110  -18.4770 O.2   369  HIS369     -0.2864
    112  CB        62.9200   17.8610  -18.5080 C.3   369  HIS369      0.0771
    113  CG        62.3950   18.5330  -19.7280 C.ar  369  HIS369      0.0820
    114  ND1       62.3050   19.9040  -19.8400 N.ar  369  HIS369     -0.2267
    115  CD2       61.9220   18.0230  -20.8890 C.ar  369  HIS369      0.1154
    116  CE1       61.8230   20.2090  -21.0280 C.ar  369  HIS369      0.1986
    117  NE2       61.5730   19.0870  -21.6780 N.ar  369  HIS369     -0.2212
    118  N         59.5340   12.0690  -17.4560 N.3   372  ILE372     -0.1245
    119  CA        59.2960   11.7850  -18.8810 C.3   372  ILE372      0.1561
    120  C         60.6110   11.5800  -19.6310 C.2   372  ILE372      0.2260
    121  O         61.2450   12.5290  -20.0780 O.2   372  ILE372     -0.2867
    122  CB        58.4470   12.8900  -19.5540 C.3   372  ILE372      0.0252
    123  CG1       57.1340   13.0840  -18.7670 C.3   372  ILE372      0.0019
    124  CG2       58.1960   12.5550  -21.0390 C.3   372  ILE372      0.0019
    125  CD1       57.3180   13.5990  -17.3030 C.3   372  ILE372      0.0001
    126  N         59.3670    7.1250  -19.5860 N.3   376  LEU376     -0.1245
    127  CA        59.1620    6.6370  -20.9730 C.3   376  LEU376      0.1561
    128  C         59.9360    5.3710  -21.3840 C.2   376  LEU376      0.2260
    129  O         59.2990    4.3940  -21.8100 O.2   376  LEU376     -0.2867
    130  CB        59.2530    7.7500  -22.0440 C.3   376  LEU376      0.0270
    131  CG        57.9060    8.3940  -22.4630 C.3   376  LEU376      0.0019
    132  CD1       58.0920    9.5260  -23.4810 C.3   376  LEU376      0.0001
    133  CD2       56.9010    7.3690  -23.0050 C.3   376  LEU376      0.0001
@<TRIPOS>BOND
     1    55    53    1
     2    47    45    1
     3    53    54    1
     4    53    52    1
     5    46    45    1
     6    40    41    1
     7    44    45    1
     8    44    41    1
     9    41    42    1
    10    52    49    1
    11    42    43    2
    12    89    88    1
    13    35    34    2
    14    87    88   ar
    15    87    85   ar
    16    49    48    1
    17    49    50    1
    18    68    67    1
    19    88    86   ar
    20    51    50    2
    21     1     2    1
    22    85    83   ar
    23     4     3    2
    24    38    36    1
    25     3     2    1
    26    50    56   am
    27    34    33    1
    28    86    84   ar
    29     5     2    1
    30     5     6    1
    31    83    84   ar
    32    83    82    1
    33    67    69    1
    34    67    64    1
    35    11    13   ar
    36    11     8   ar
    37    78    79    1
    38    79    82    1
    39    79    80    1
    40    33    36    1
    41    33    32    1
    42    13    14   ar
    43    56    57    1
    44    36    37    1
    45    64    63    1
    46    64    65    1
    47   132   131    1
    48     6     8   ar
    49     6     7   ar
    50     8    10   ar
    51    37    39    1
    52   133   131    1
    53    80    81    2
    54    62    60    1
    55    60    57    1
    56    60    61    1
    57    57    58    1
    58    29    31   ar
    59    29    27   ar
    60   131   130    1
    61    76    77    1
    62    76    75    1
    63    31    30   ar
    64    14    12   ar
    65    65    66    2
    66   130   127    1
    67    24    23    2
    68     7     9   ar
    69   129   128    2
    70    27    26   ar
    71    10    12   ar
    72    10     9   ar
    73   117   116   ar
    74   117   115   ar
    75   128   127    1
    76    30    28   ar
    77    58    59    2
    78    75    74    1
    79   124   122    1
    80    70    71    1
    81   116   114   ar
    82   127   126    1
    83    71    74    1
    84    71    72    1
    85    23    22    1
    86   115   113   ar
    87    26    28   ar
    88    26    25    1
    89    22    21    1
    90    22    25    1
    91    73    72    2
    92   121   120    2
    93   114   113   ar
    94   113   112    1
    95   120   119    1
    96   122   119    1
    97   122   123    1
    98   119   118    1
    99   123   125    1
   100   112   109    1
   101   111   110    2
   102   107   105   ar
   103   107   106   ar
   104   109   110    1
   105   109   108    1
   106    97    95    1
   107   105   103   ar
   108   106   104   ar
   109    96    95    1
   110    18    17    2
   111   101   100    2
   112   108   100   am
   113    95    94    1
   114    17    16    1
   115   100    99    1
   116   103   104   ar
   117   103   102    1
   118    94    91    1
   119    19    16    1
   120    19    20    1
   121    16    15    1
   122    93    92    2
   123    92    91    1
   124    91    90    1
   125   102    99    1
   126    99    98    1
