@<TRIPOS>MOLECULE
tmp/2o01P03.pdb
 71 68 0 0 0
SMALL
GASTEIGER

@<TRIPOS>ATOM
      1  N         40.4690   33.7280  -63.5290 N.3    16  GLY16      -0.1225
      2  CA        39.9460   35.0950  -63.4240 C.3    16  GLY16       0.1811
      3  C         40.6680   35.9990  -62.4310 C.2    16  GLY16       0.2280
      4  O         40.9190   37.1610  -62.7280 O.2    16  GLY16      -0.2866
      5  N         43.6810   36.5830  -63.9060 N.3    19  GLY19      -0.1210
      6  CA        43.2610   37.5420  -64.9110 C.3    19  GLY19       0.1956
      7  C         43.1430   38.9250  -64.3130 C.2    19  GLY19       0.2612
      8  O         43.4200   39.9100  -64.9840 O.2    19  GLY19      -0.2717
      9  N         42.7280   39.0070  -63.0520 N.am   20  ALA20      -0.1965
     10  CA        42.6990   40.2940  -62.3600 C.3    20  ALA20       0.1728
     11  C         44.1230   40.8570  -62.3550 C.2    20  ALA20       0.2616
     12  O         44.3940   41.9150  -62.9230 O.2    20  ALA20      -0.2715
     13  CB        42.1490   40.1430  -60.9310 C.3    20  ALA20       0.0334
     14  N         45.0410   40.0870  -61.7830 N.am   21  ILE21      -0.1977
     15  CA        46.4210   40.5210  -61.5520 C.3    21  ILE21       0.1596
     16  C         47.3300   40.6050  -62.8030 C.2    21  ILE21       0.2287
     17  O         48.5740   40.7020  -62.6620 O.2    21  ILE21      -0.2864
     18  CB        47.1190   39.6490  -60.4570 C.3    21  ILE21       0.0276
     19  CG1       47.2090   38.1800  -60.9050 C.3    21  ILE21       0.0022
     20  CG2       46.3820   39.7600  -59.1040 C.3    21  ILE21       0.0022
     21  CD1       48.4820   37.4730  -60.4980 C.3    21  ILE21       0.0001
     22  N         45.1150   44.1930  -65.3550 N.3    24  GLU24      -0.1231
     23  CA        44.9420   45.3810  -64.5210 C.3    24  GLU24       0.1699
     24  C         45.8690   46.5300  -64.8870 C.2    24  GLU24       0.2592
     25  O         46.3940   46.5930  -66.0090 O.2    24  GLU24      -0.2718
     26  CB        45.0350   45.0220  -63.0370 C.3    24  GLU24       0.0402
     27  CG        43.6690   45.0350  -62.3510 C.3    24  GLU24       0.1161
     28  CD        42.5050   44.8890  -63.3400 C.2    24  GLU24       0.3649
     29  OE1       42.2210   43.7590  -63.7900 O.co2  24  GLU24      -0.2457
     30  OE2       41.8580   45.9110  -63.6750 O.co2  24  GLU24      -0.2457
     31  N         46.0420   47.4550  -63.9500 N.am   25  ILE25      -0.1966
     32  CA        46.8070   48.6690  -64.2370 C.3    25  ILE25       0.1727
     33  C         48.0160   48.9080  -63.2930 C.2    25  ILE25       0.2616
     34  O         49.1690   48.6890  -63.7060 O.2    25  ILE25      -0.2715
     35  CB        45.8880   49.9450  -64.3350 C.3    25  ILE25       0.0290
     36  CG1       44.5320   49.6230  -64.9830 C.3    25  ILE25       0.0022
     37  CG2       46.5970   51.0810  -65.0840 C.3    25  ILE25       0.0023
     38  CD1       43.3540   49.5570  -64.0000 C.3    25  ILE25       0.0001
     39  N         47.7740   49.3020  -62.0330 N.am   26  LEU26      -0.1963
     40  CA        46.4860   49.1120  -61.3620 C.3    26  LEU26       0.1728
     41  C         45.9080   50.4150  -60.8190 C.2    26  LEU26       0.2617
     42  O         45.7510   51.3980  -61.5680 O.2    26  LEU26      -0.2715
     43  CB        46.6480   48.0880  -60.2340 C.3    26  LEU26       0.0311
     44  CG        46.9690   46.6150  -60.5800 C.3    26  LEU26       0.0022
     45  CD1       48.4720   46.3790  -60.5860 C.3    26  LEU26       0.0001
     46  CD2       46.3040   45.6630  -59.5690 C.3    26  LEU26       0.0001
     47  N         45.5940   50.4070  -59.5180 N.am   27  GLY27      -0.1940
     48  CA        45.0840   51.5900  -58.8080 C.3    27  GLY27       0.2014
     49  C         44.5120   51.2910  -57.4320 C.2    27  GLY27       0.2638
     50  O         43.2870   51.2170  -57.2590 O.2    27  GLY27      -0.2714
     51  N         45.4020   51.1710  -56.4490 N.am   28  LYS28      -0.1977
     52  CA        45.0590   50.7320  -55.0870 C.3    28  LYS28       0.1596
     53  C         45.0590   49.1930  -55.0060 C.2    28  LYS28       0.2287
     54  O         44.3840   48.5190  -55.7820 O.2    28  LYS28      -0.2864
     55  CB        43.7270   51.3210  -54.5800 C.3    28  LYS28       0.0298
     56  CG        43.8130   52.7340  -54.0370 C.3    28  LYS28       0.0038
     57  CD        43.1410   53.7310  -54.9770 C.3    28  LYS28       0.0206
     58  CE        43.1470   55.1620  -54.4050 C.3    28  LYS28       0.1093
     59  NZ        42.6560   56.1720  -55.3940 N.3    28  LYS28      -0.1314
     60  N         36.0270   59.0940  -58.4700 N.3    38  TYR38      -0.1241
     61  CA        34.7820   58.7400  -59.1470 C.3    38  TYR38       0.1605
     62  C         33.6460   59.6110  -58.6150 C.2    38  TYR38       0.2264
     63  O         33.1800   60.5250  -59.3020 O.2    38  TYR38      -0.2867
     64  CB        34.4780   57.2480  -59.0010 C.3    38  TYR38       0.0534
     65  CG        35.3920   56.3600  -59.8150 C.ar   38  TYR38      -0.0201
     66  CD1       35.8780   55.1630  -59.2920 C.ar   38  TYR38      -0.0009
     67  CD2       35.7740   56.7180  -61.1120 C.ar   38  TYR38      -0.0009
     68  CE1       36.7180   54.3390  -60.0380 C.ar   38  TYR38       0.0417
     69  CE2       36.6230   55.9110  -61.8650 C.ar   38  TYR38       0.0417
     70  CZ        37.0910   54.7220  -61.3250 C.ar   38  TYR38       0.1957
     71  OH        37.9300   53.9120  -62.0690 O.3    38  TYR38      -0.2866
@<TRIPOS>BOND
     1    25    24    2
     2    22    23    1
     3    37    35    1
     4     8     7    2
     5    36    35    1
     6    36    38    1
     7     6     7    1
     8     6     5    1
     9    24    23    1
    10    24    31   am
    11    23    26    1
    12    35    32    1
    13     7     9   am
    14    32    31    1
    15    32    33    1
    16    29    28   ar
    17    34    33    2
    18    30    28   ar
    19     1     2    1
    20     2     3    1
    21    28    27    1
    22    33    39   am
    23     9    10    1
    24    26    27    1
    25    12    11    2
    26    16    17    2
    27    16    15    1
    28     4     3    2
    29    10    11    1
    30    10    13    1
    31    11    14   am
    32    71    70    1
    33    39    40    1
    34    69    70   ar
    35    69    67   ar
    36    14    15    1
    37    42    41    2
    38    15    18    1
    39    40    41    1
    40    40    43    1
    41    70    68   ar
    42    67    65   ar
    43    19    21    1
    44    19    18    1
    45    41    47   am
    46    45    44    1
    47    44    43    1
    48    44    46    1
    49    18    20    1
    50    68    66   ar
    51    65    66   ar
    52    65    64    1
    53    47    48    1
    54    63    62    2
    55    61    64    1
    56    61    62    1
    57    61    60    1
    58    48    49    1
    59    49    50    2
    60    49    51   am
    61    51    52    1
    62    54    53    2
    63    59    58    1
    64    52    53    1
    65    52    55    1
    66    57    58    1
    67    57    56    1
    68    55    56    1
