@<TRIPOS>MOLECULE
tmp/2o02A00.pdb
 234 221 0 0 0
SMALL
GASTEIGER

@<TRIPOS>ATOM
      1  N        -26.7210    7.4320  -12.0300 N.3    14  GLU14      -0.1245
      2  CA       -25.9450    6.3730  -11.3540 C.3    14  GLU14       0.1567
      3  C        -26.8660    5.3620  -10.6700 C.2    14  GLU14       0.2260
      4  O        -26.6400    4.1240  -10.7450 O.2    14  GLU14      -0.2867
      5  CB       -25.0850    7.0180  -10.2120 C.3    14  GLU14       0.0388
      6  CG       -24.2010    5.9750   -9.4880 C.3    14  GLU14       0.1160
      7  CD       -23.3870    6.4850   -8.4630 C.2    14  GLU14       0.3649
      8  OE1      -23.5770    7.6330   -7.9910 O.co2  14  GLU14      -0.2457
      9  OE2      -22.6410    5.5960   -8.0180 O.co2  14  GLU14      -0.2457
     10  N        -15.8190   12.6810   -7.7040 N.3    42  ASN42      -0.1240
     11  CA       -16.0940   11.2340   -7.4740 C.3    42  ASN42       0.1653
     12  C        -17.1530   10.8150   -8.4950 C.2    42  ASN42       0.2266
     13  O        -17.0270    9.7140   -9.0350 O.2    42  ASN42      -0.2867
     14  CB       -16.6110   11.0810   -6.0320 C.3    42  ASN42       0.1155
     15  CG       -15.4900   11.2270   -5.0370 C.2    42  ASN42       0.2627
     16  OD1      -14.2920   11.4430   -5.3770 O.2    42  ASN42      -0.2716
     17  ND2      -15.8480   11.0930   -3.7930 N.am   42  ASN42      -0.0877
     18  N        -15.5890   10.3600  -12.0020 N.3    45  SER45      -0.1202
     19  CA       -14.7610    9.1710  -11.9740 C.3    45  SER45       0.2020
     20  C        -15.5900    7.8770  -12.0360 C.2    45  SER45       0.2618
     21  O        -15.2550    6.9120  -12.7310 O.2    45  SER45      -0.2717
     22  CB       -13.8510    9.2370  -10.7830 C.3    45  SER45       0.2103
     23  OG       -13.0180    8.1260  -10.9020 O.3    45  SER45      -0.2182
     24  N        -16.6350    7.7760  -11.1900 N.am   46  VAL46      -0.1979
     25  CA       -17.4850    6.5510  -11.2200 C.3    46  VAL46       0.1595
     26  C        -18.1290    6.3520  -12.5950 C.2    46  VAL46       0.2287
     27  O        -18.1570    5.2250  -13.0850 O.2    46  VAL46      -0.2864
     28  CB       -18.5910    6.7230  -10.0970 C.3    46  VAL46       0.0276
     29  CG1      -19.7040    5.6910  -10.2720 C.3    46  VAL46       0.0022
     30  CG2      -17.9380    6.6060   -8.6650 C.3    46  VAL46       0.0022
     31  N        -15.3170    5.2260  -15.0240 N.3    49  LYS49      -0.1231
     32  CA       -14.8500    3.9100  -14.6170 C.3    49  LYS49       0.1693
     33  C        -15.7620    2.8090  -15.1630 C.2    49  LYS49       0.2592
     34  O        -15.3210    1.7480  -15.6050 O.2    49  LYS49      -0.2718
     35  CB       -14.8890    3.8040  -13.0150 C.3    49  LYS49       0.0285
     36  CG       -15.1690    2.3920  -12.3790 C.3    49  LYS49       0.0035
     37  CD       -15.7110    2.4220  -10.9050 C.3    49  LYS49       0.0206
     38  CE       -15.4830    0.9970  -10.3670 C.3    49  LYS49       0.1093
     39  NZ       -14.9810    0.5640   -9.0320 N.3    49  LYS49      -0.1314
     40  N        -17.0670    3.0900  -15.0850 N.am   50  ASN50      -0.1974
     41  CA       -18.0190    2.0960  -15.5390 C.3    50  ASN50       0.1688
     42  C        -18.1440    2.0820  -17.0540 C.2    50  ASN50       0.2292
     43  O        -18.2100    0.9710  -17.6350 O.2    50  ASN50      -0.2864
     44  CB       -19.3690    2.4100  -14.9840 C.3    50  ASN50       0.1181
     45  CG       -19.5610    1.8620  -13.5690 C.2    50  ASN50       0.2629
     46  OD1      -19.8230    0.6150  -13.4140 O.2    50  ASN50      -0.2716
     47  ND2      -19.4250    2.6980  -12.5600 N.am   50  ASN50      -0.0877
     48  N        -13.3750   -2.7880  -21.2610 N.3    56  ARG56      -0.1245
     49  CA       -12.2280   -3.6310  -20.8430 C.3    56  ARG56       0.1563
     50  C        -12.7420   -5.0650  -20.6600 C.2    56  ARG56       0.2260
     51  O        -12.0710   -6.0540  -21.1180 O.2    56  ARG56      -0.2867
     52  CB       -11.5540   -3.1270  -19.5800 C.3    56  ARG56       0.0307
     53  CG       -10.9620   -1.8100  -19.8310 C.3    56  ARG56       0.0489
     54  CD       -10.2880   -1.4170  -18.4360 C.3    56  ARG56       0.2205
     55  NE        -9.0980   -2.1610  -17.9570 N.pl3  56  ARG56      -0.0865
     56  CZ        -8.6960   -2.4340  -16.6590 C.cat  56  ARG56       0.5346
     57  NH1       -9.5740   -2.2020  -15.7040 N.pl3  56  ARG56       0.1354
     58  NH2       -7.4730   -2.9890  -16.3160 N.pl3  56  ARG56       0.1354
     59  N         -5.4600   12.5640   -6.8840 N.3   111  PHE111     -0.1298
     60  CA        -6.5890   11.8360   -7.3850 C.3   111  PHE111      0.1290
     61  C         -6.4690   11.9220   -8.9160 C.3   111  PHE111      0.2013
     62  O         -6.6410   10.8730   -9.6420 O.3   111  PHE111     -0.2188
     63  CB        -7.8620   12.4450   -6.8740 C.3   111  PHE111      0.0480
     64  CG        -9.0920   11.6670   -7.3720 C.ar  111  PHE111     -0.0206
     65  CD1       -9.5830   11.7130   -8.7100 C.ar  111  PHE111     -0.0042
     66  CD2       -9.7250   10.6940   -6.4580 C.ar  111  PHE111     -0.0042
     67  CE1      -10.7320   11.0100   -9.0210 C.ar  111  PHE111     -0.0003
     68  CE2      -10.7810    9.8780   -6.8900 C.ar  111  PHE111     -0.0003
     69  CZ       -11.2700   10.0600   -8.1620 C.ar  111  PHE111     -0.0000
     70  N         -3.3930   10.1720  -10.4680 N.3   114  LYS114     -0.1245
     71  CA        -3.7110    8.6990  -10.4010 C.3   114  LYS114      0.1561
     72  C         -4.6510    8.3500  -11.5600 C.2   114  LYS114      0.2260
     73  O         -4.4090    7.3790  -12.2530 O.2   114  LYS114     -0.2867
     74  CB        -4.3650    8.3530   -9.0410 C.3   114  LYS114      0.0271
     75  CG        -4.7860    6.8810   -9.0340 C.3   114  LYS114      0.0035
     76  CD        -5.5340    6.6130   -7.7250 C.3   114  LYS114      0.0206
     77  CE        -6.3290    5.3280   -7.8650 C.3   114  LYS114      0.1093
     78  NZ        -7.3990    5.5310   -8.9810 N.3   114  LYS114     -0.1314
     79  N         -4.1820    5.6590  -14.5650 N.3   118  ASP118     -0.1225
     80  CA        -5.0980    4.5300  -14.8950 C.3   118  ASP118      0.1805
     81  C         -5.5260    4.5600  -16.3310 C.2   118  ASP118      0.2597
     82  O         -5.5440    3.5090  -16.9260 O.2   118  ASP118     -0.2718
     83  CB        -6.3710    4.7360  -14.0520 C.3   118  ASP118      0.1424
     84  CG        -6.1800    4.4730  -12.5190 C.2   118  ASP118      0.3668
     85  OD1       -5.1950    3.7000  -12.1200 O.co2 118  ASP118     -0.2456
     86  OD2       -6.9290    5.1190  -11.7350 O.co2 118  ASP118     -0.2456
     87  N         -5.8500    5.7240  -16.8930 N.am  119  TYR119     -0.1976
     88  CA        -6.3600    5.7290  -18.2440 C.3   119  TYR119      0.1639
     89  C         -5.3020    5.4740  -19.2560 C.2   119  TYR119      0.2290
     90  O         -5.5660    4.8180  -20.2930 O.2   119  TYR119     -0.2864
     91  CB        -7.2230    6.9780  -18.5670 C.3   119  TYR119      0.0560
     92  CG        -8.5940    6.8150  -17.8890 C.ar  119  TYR119     -0.0198
     93  CD1       -8.8490    7.0980  -16.5350 C.ar  119  TYR119     -0.0009
     94  CD2       -9.6990    6.2720  -18.6520 C.ar  119  TYR119     -0.0009
     95  CE1      -10.0950    6.9040  -15.9260 C.ar  119  TYR119      0.0417
     96  CE2      -10.9260    6.1360  -18.0730 C.ar  119  TYR119      0.0417
     97  CZ       -11.0690    6.3510  -16.7000 C.ar  119  TYR119      0.1957
     98  OH       -12.3420    6.1570  -16.0880 O.3   119  TYR119     -0.2866
     99  N         -2.9010    3.4630  -18.4790 N.3   121  ARG121     -0.1231
    100  CA        -2.7450    1.9990  -18.2790 C.3   121  ARG121      0.1694
    101  C         -3.8050    1.2480  -19.1280 C.2   121  ARG121      0.2592
    102  O         -3.4440    0.2410  -19.7970 O.2   121  ARG121     -0.2718
    103  CB        -2.8620    1.6300  -16.8060 C.3   121  ARG121      0.0321
    104  CG        -2.9460    0.1810  -16.5810 C.3   121  ARG121      0.0489
    105  CD        -2.6930   -0.2050  -15.0910 C.3   121  ARG121      0.2205
    106  NE        -3.5800    0.5050  -14.1620 N.pl3 121  ARG121     -0.0865
    107  CZ        -4.7720    0.0300  -13.7190 C.cat 121  ARG121      0.5346
    108  NH1       -5.1630   -1.2180  -14.0730 N.pl3 121  ARG121      0.1354
    109  NH2       -5.5000    0.7280  -12.8450 N.pl3 121  ARG121      0.1354
    110  N         -5.0200    1.7300  -19.1970 N.am  122  TYR122     -0.1976
    111  CA        -5.9680    1.0590  -20.0510 C.3   122  TYR122      0.1639
    112  C         -5.6220    1.1560  -21.5060 C.2   122  TYR122      0.2290
    113  O         -5.7940    0.1910  -22.2690 O.2   122  TYR122     -0.2864
    114  CB        -7.3410    1.6840  -19.7770 C.3   122  TYR122      0.0560
    115  CG        -7.8970    1.6240  -18.3550 C.ar  122  TYR122     -0.0198
    116  CD1       -7.4060    0.7260  -17.3940 C.ar  122  TYR122     -0.0009
    117  CD2       -8.7280    2.6140  -17.9170 C.ar  122  TYR122     -0.0009
    118  CE1       -7.8460    0.7330  -16.1120 C.ar  122  TYR122      0.0417
    119  CE2       -9.1630    2.6440  -16.5790 C.ar  122  TYR122      0.0417
    120  CZ        -8.6720    1.7140  -15.7260 C.ar  122  TYR122      0.1957
    121  OH        -9.0560    1.7410  -14.4020 O.3   122  TYR122     -0.2866
    122  N         -7.1750    7.0360    2.1690 N.3   159  PRO159     -0.2102
    123  CA        -7.6230    6.1160    1.0790 C.3   159  PRO159      0.1504
    124  C         -7.1240    6.4650   -0.3420 C.2   159  PRO159      0.2575
    125  O         -6.8980    5.5530   -1.1920 O.2   159  PRO159     -0.2718
    126  CB        -9.1740    6.2330    1.0470 C.3   159  PRO159      0.0282
    127  CG        -9.5170    6.8170    2.3820 C.3   159  PRO159      0.0208
    128  CD        -8.3330    7.5590    2.9280 C.3   159  PRO159      0.0893
    129  N         -6.9450    7.7790   -0.6450 N.am  160  ILE160     -0.1980
    130  CA        -6.4270    8.1280   -2.0080 C.3   160  ILE160      0.1595
    131  C         -4.9960    7.6750   -2.1580 C.2   160  ILE160      0.2287
    132  O         -4.6000    7.1110   -3.1280 O.2   160  ILE160     -0.2864
    133  CB        -6.5810    9.6140   -2.3120 C.3   160  ILE160      0.0276
    134  CG1       -8.0990    9.9120   -2.4150 C.3   160  ILE160      0.0022
    135  CG2       -5.9110    9.9750   -3.6790 C.3   160  ILE160      0.0022
    136  CD1       -8.4050   11.4230   -2.6230 C.3   160  ILE160      0.0001
    137  N         -5.1400    3.8370   -2.4180 N.3   163  GLY163     -0.1225
    138  CA        -5.6340    3.4690   -3.7960 C.3   163  GLY163      0.1811
    139  C         -4.6350    3.7180   -4.8790 C.2   163  GLY163      0.2280
    140  O         -4.5300    2.9210   -5.7910 O.2   163  GLY163     -0.2866
    141  N         -2.2050    0.8440   -4.6860 N.3   166  LEU166     -0.1231
    142  CA        -2.8260   -0.3780   -5.1640 C.3   166  LEU166      0.1693
    143  C         -2.7030   -0.3360   -6.7110 C.2   166  LEU166      0.2592
    144  O         -2.1960   -1.3060   -7.3740 O.2   166  LEU166     -0.2718
    145  CB        -4.2490   -0.4620   -4.6750 C.3   166  LEU166      0.0284
    146  CG        -4.9210   -1.7200   -5.1870 C.3   166  LEU166      0.0019
    147  CD1       -4.4930   -2.9840   -4.4320 C.3   166  LEU166      0.0001
    148  CD2       -6.4760   -1.5420   -5.3020 C.3   166  LEU166      0.0001
    149  N         -3.1730    0.7300   -7.3380 N.am  167  ASN167     -0.1974
    150  CA        -3.1760    0.7880   -8.7970 C.3   167  ASN167      0.1688
    151  C         -1.7930    0.9020   -9.4300 C.2   167  ASN167      0.2292
    152  O         -1.5240    0.3090  -10.4790 O.2   167  ASN167     -0.2864
    153  CB        -4.1050    1.9460   -9.3110 C.3   167  ASN167      0.1181
    154  CG        -5.5860    1.6110   -9.1320 C.2   167  ASN167      0.2629
    155  OD1       -5.9430    0.7160   -8.2990 O.2   167  ASN167     -0.2716
    156  ND2       -6.4740    2.3370   -9.8270 N.am  167  ASN167     -0.0877
    157  N         -0.2950   -2.5260   -9.3540 N.3   170  VAL170     -0.1245
    158  CA        -0.8270   -3.3510  -10.4320 C.3   170  VAL170      0.1561
    159  C         -0.2510   -2.9030  -11.8350 C.2   170  VAL170      0.2260
    160  O          0.1080   -3.7510  -12.6100 O.2   170  VAL170     -0.2867
    161  CB        -2.4210   -3.2480  -10.4730 C.3   170  VAL170      0.0252
    162  CG1       -2.9580   -3.8040  -11.7360 C.3   170  VAL170      0.0019
    163  CG2       -2.9910   -4.0240   -9.3070 C.3   170  VAL170      0.0019
    164  N          1.3270   -5.8330  -14.0150 N.3   174  GLU174     -0.1245
    165  CA         0.6980   -6.2580  -15.2620 C.3   174  GLU174      0.1567
    166  C          1.1850   -5.5970  -16.4890 C.2   174  GLU174      0.2260
    167  O          1.0430   -6.1510  -17.5720 O.2   174  GLU174     -0.2867
    168  CB        -0.8610   -5.9780  -15.1830 C.3   174  GLU174      0.0388
    169  CG        -1.4860   -6.6500  -13.9610 C.3   174  GLU174      0.1160
    170  CD        -2.9790   -6.5570  -13.9290 C.2   174  GLU174      0.3649
    171  OE1       -3.5510   -7.2180  -13.0540 O.co2 174  GLU174     -0.2457
    172  OE2       -3.6060   -5.8710  -14.8200 O.co2 174  GLU174     -0.2457
    173  N        -12.8960    2.6210    4.4400 N.3   207  ASP207     -0.1239
    174  CA       -12.2950    2.7420    3.0950 C.3   207  ASP207      0.1674
    175  C        -10.7950    2.4300    3.1750 C.2   207  ASP207      0.2266
    176  O        -10.2840    1.6370    2.3840 O.2   207  ASP207     -0.2867
    177  CB       -12.3540    4.2060    2.5190 C.3   207  ASP207      0.1410
    178  CG       -13.7580    4.7180    2.2550 C.2   207  ASP207      0.3668
    179  OD1      -14.6970    3.9350    1.9800 O.co2 207  ASP207     -0.2456
    180  OD2      -13.8630    5.9960    2.2520 O.co2 207  ASP207     -0.2456
    181  N        -10.3360   -1.3960    3.8890 N.3   210  LEU210     -0.1231
    182  CA       -10.6670   -2.1920    2.6650 C.3   210  LEU210      0.1693
    183  C         -9.5430   -2.1810    1.6190 C.2   210  LEU210      0.2591
    184  O         -9.1630   -3.2220    1.0770 O.2   210  LEU210     -0.2718
    185  CB       -11.9530   -1.6420    2.0980 C.3   210  LEU210      0.0284
    186  CG       -12.3190   -2.5220    0.9470 C.3   210  LEU210      0.0019
    187  CD1      -12.3230   -4.0520    1.1520 C.3   210  LEU210      0.0001
    188  CD2      -13.7760   -2.1420    0.6660 C.3   210  LEU210      0.0001
    189  N         -8.9640   -0.9810    1.3550 N.am  211  ILE211     -0.1980
    190  CA        -7.8740   -0.9450    0.3520 C.3   211  ILE211      0.1595
    191  C         -6.6570   -1.7180    0.8960 C.2   211  ILE211      0.2287
    192  O         -5.9490   -2.4190    0.1050 O.2   211  ILE211     -0.2864
    193  CB        -7.5660    0.5070   -0.1400 C.3   211  ILE211      0.0276
    194  CG1       -8.8150    1.2290   -0.6660 C.3   211  ILE211      0.0022
    195  CG2       -6.4050    0.4460   -1.1260 C.3   211  ILE211      0.0022
    196  CD1       -8.6020    2.7400   -0.8600 C.3   211  ILE211      0.0001
    197  N         -7.1180   -5.2090    0.0270 N.3   214  LEU214     -0.1245
    198  CA        -6.8440   -5.4340   -1.3660 C.3   214  LEU214      0.1561
    199  C         -5.3710   -5.4880   -1.7230 C.2   214  LEU214      0.2260
    200  O         -4.9650   -6.3250   -2.5480 O.2   214  LEU214     -0.2867
    201  CB        -7.5080   -4.3720   -2.2730 C.3   214  LEU214      0.0270
    202  CG        -9.0700   -4.2890   -2.2020 C.3   214  LEU214      0.0019
    203  CD1       -9.5790   -3.1510   -3.0160 C.3   214  LEU214      0.0001
    204  CD2       -9.6710   -5.5840   -2.6080 C.3   214  LEU214      0.0001
    205  N         -3.5960   -8.8280   -3.3050 N.3   218  ASN218     -0.1240
    206  CA        -2.7550   -8.8700   -4.5000 C.3   218  ASN218      0.1653
    207  C         -1.3890   -9.4420   -4.1370 C.2   218  ASN218      0.2266
    208  O         -0.9060  -10.2860   -4.8660 O.2   218  ASN218     -0.2867
    209  CB        -2.5900   -7.4480   -5.0760 C.3   218  ASN218      0.1155
    210  CG        -3.7780   -7.0100   -5.9200 C.2   218  ASN218      0.2627
    211  OD1       -4.5800   -7.8770   -6.3090 O.2   218  ASN218     -0.2716
    212  ND2       -3.8480   -5.7150   -6.3040 N.am  218  ASN218     -0.0877
    213  N         -1.8320  -13.0830   -4.1570 N.3   221  LEU221     -0.1231
    214  CA        -1.8970  -13.6060   -5.5210 C.3   221  LEU221      0.1693
    215  C         -0.4990  -13.6730   -6.0400 C.2   221  LEU221      0.2592
    216  O         -0.1100  -14.6570   -6.6760 O.2   221  LEU221     -0.2718
    217  CB        -2.7880  -12.7080   -6.4380 C.3   221  LEU221      0.0284
    218  CG        -3.0640  -13.0570   -7.9320 C.3   221  LEU221      0.0019
    219  CD1       -3.9120  -14.3970   -8.0670 C.3   221  LEU221      0.0001
    220  CD2       -3.8110  -11.8690   -8.5180 C.3   221  LEU221      0.0001
    221  N          0.2970  -12.6410   -5.8020 N.am  222  TRP222     -0.1976
    222  CA         1.5680  -12.5060   -6.5230 C.3   222  TRP222      0.1640
    223  C          2.6840  -13.3370   -5.9110 C.2   222  TRP222      0.2290
    224  O          3.7280  -13.4730   -6.5500 O.2   222  TRP222     -0.2864
    225  CB         2.0290  -11.0330   -6.6540 C.3   222  TRP222      0.0576
    226  CG         1.0250  -10.1380   -7.3850 C.ar  222  TRP222      0.0006
    227  CD1        0.1580  -10.4860   -8.3310 C.ar  222  TRP222      0.0946
    228  CD2        0.9010   -8.7270   -7.2440 C.ar  222  TRP222      0.0152
    229  NE1       -0.5770   -9.4060   -8.8120 N.ar  222  TRP222     -0.2442
    230  CE2       -0.1500   -8.3040   -8.1100 C.ar  222  TRP222      0.0810
    231  CE3        1.5100   -7.7680   -6.4100 C.ar  222  TRP222      0.0012
    232  CZ2       -0.5290   -6.9670   -8.2090 C.ar  222  TRP222      0.0191
    233  CZ3        1.1140   -6.4170   -6.5330 C.ar  222  TRP222      0.0001
    234  CH2        0.1420   -6.0420   -7.4730 C.ar  222  TRP222      0.0015
@<TRIPOS>BOND
     1   113   112    2
     2   112   111    1
     3    48    49    1
     4    51    50    2
     5    49    50    1
     6    49    52    1
     7    90    89    2
     8   111   114    1
     9   111   110    1
    10    53    52    1
    11    53    54    1
    12   102   101    2
    13   114   115    1
    14    89    88    1
    15   110   101   am
    16   101   100    1
    17    94    96   ar
    18    94    92   ar
    19    91    88    1
    20    91    92    1
    21    99   100    1
    22    54    55    1
    23   115   117   ar
    24   115   116   ar
    25   100   103    1
    26    88    87    1
    27    96    97   ar
    28    55    56    2
    29   117   119   ar
    30    92    93   ar
    31    43    42    2
    32   167   166    2
    33   116   118   ar
    34    42    41    1
    35    82    81    2
    36    87    81   am
    37   103   104    1
    38    97    98    1
    39    97    95   ar
    40    56    58    1
    41    56    57    1
    42   104   105    1
    43   119   120   ar
    44    93    95   ar
    45   166   165    1
    46    81    80    1
    47   118   120   ar
    48   120   121    1
    49    34    33    2
    50    41    40    1
    51    41    44    1
    52   165   168    1
    53   165   164    1
    54   168   169    1
    55    33    40   am
    56    33    32    1
    57   105   106    1
    58    31    32    1
    59    44    45    1
    60    80    79    1
    61    80    83    1
    62   172   170   ar
    63    32    35    1
    64   106   107    2
    65   108   107    1
    66    83    84    1
    67   169   170    1
    68   170   171   ar
    69   107   109    1
    70    45    46    2
    71    45    47   am
    72    27    26    2
    73    35    36    1
    74    21    20    2
    75   160   159    2
    76    26    25    1
    77    84    85   ar
    78    84    86   ar
    79    36    37    1
    80    73    72    2
    81    20    19    1
    82    20    24   am
    83     1     2    1
    84    18    19    1
    85    19    22    1
    86   159   158    1
    87   162   161    1
    88    72    71    1
    89     2     3    1
    90     2     5    1
    91    25    24    1
    92    25    28    1
    93    37    38    1
    94    23    22    1
    95     4     3    2
    96   152   151    2
    97   161   158    1
    98   161   163    1
    99    70    71    1
   100   158   157    1
   101    71    74    1
   102    38    39    1
   103    29    28    1
   104     5     6    1
   105    28    30    1
   106   156   154   am
   107    62    61    1
   108     6     7    1
   109   151   150    1
   110   153   154    1
   111   153   150    1
   112   154   155    2
   113    74    75    1
   114    13    12    2
   115    75    76    1
   116    67    65   ar
   117    67    69   ar
   118    78    77    1
   119    61    60    1
   120   229   227   ar
   121   229   230   ar
   122   150   149    1
   123    65    64   ar
   124   220   218    1
   125    12    11    1
   126     7     9   ar
   127     7     8   ar
   128   227   226   ar
   129   232   230   ar
   130   232   234   ar
   131    69    68   ar
   132   230   228   ar
   133   219   218    1
   134   218   217    1
   135    77    76    1
   136    10    11    1
   137    11    14    1
   138   234   233   ar
   139   226   228   ar
   140   226   225    1
   141    60    59    1
   142    60    63    1
   143   144   143    2
   144    64    63    1
   145    64    66   ar
   146   149   143   am
   147   228   231   ar
   148    68    66   ar
   149   143   142    1
   150   216   215    2
   151   225   222    1
   152   224   223    2
   153   233   231   ar
   154   222   223    1
   155   222   221    1
   156   217   214    1
   157   211   210    2
   158   212   210   am
   159   215   221   am
   160   215   214    1
   161    14    15    1
   162   210   209    1
   163   140   139    2
   164   214   213    1
   165    16    15    2
   166   148   146    1
   167   146   145    1
   168   146   147    1
   169   142   141    1
   170   142   145    1
   171   209   206    1
   172    15    17   am
   173   139   138    1
   174   208   207    2
   175   206   207    1
   176   206   205    1
   177   138   137    1
   178   135   133    1
   179   132   131    2
   180   203   202    1
   181   136   134    1
   182   204   202    1
   183   200   199    2
   184   134   133    1
   185   133   130    1
   186   201   202    1
   187   201   198    1
   188   131   130    1
   189   130   129    1
   190   199   198    1
   191   198   197    1
   192   125   124    2
   193   195   193    1
   194   196   194    1
   195   194   193    1
   196   129   124   am
   197   124   123    1
   198   193   190    1
   199   192   191    2
   200   190   191    1
   201   190   189    1
   202   188   186    1
   203   186   187    1
   204   186   185    1
   205   126   123    1
   206   126   127    1
   207   184   183    2
   208   123   122    1
   209   189   183   am
   210   183   182    1
   211   179   178   ar
   212   185   182    1
   213   122   128    1
   214   180   178   ar
   215   178   177    1
   216   127   128    1
   217   176   175    2
   218   177   174    1
   219   182   181    1
   220   174   175    1
   221   174   173    1
