@<TRIPOS>MOLECULE
tmp/2o04A00.pdb
 113 103 0 0 0
SMALL
GASTEIGER

@<TRIPOS>ATOM
      1  N          6.6550  -10.3530   -9.9660 N.3   173  ASP173     -0.1225
      2  CA         6.2460  -10.0320   -8.6020 C.3   173  ASP173      0.1805
      3  C          4.7290   -9.8630   -8.5360 C.2   173  ASP173      0.2598
      4  O          4.1980   -8.7730   -8.7610 O.2   173  ASP173     -0.2718
      5  CB         6.9710   -8.7720   -8.1110 C.3   173  ASP173      0.1424
      6  CG         6.7010   -8.4660   -6.6460 C.2   173  ASP173      0.3668
      7  OD1        6.1290   -9.3220   -5.9410 O.co2 173  ASP173     -0.2456
      8  OD2        7.0730   -7.3620   -6.1940 O.co2 173  ASP173     -0.2456
      9  N          4.0350  -10.9530   -8.2230 N.am  174  GLY174     -0.1957
     10  CA         2.5760  -10.9660   -8.2610 C.3   174  GLY174      0.1869
     11  C          2.0880  -11.3540   -9.6440 C.2   174  GLY174      0.2309
     12  O          2.8780  -11.4090  -10.5950 O.2   174  GLY174     -0.2863
     13  N          4.9400   -6.0150  -10.3360 N.3   178  ASN178     -0.1240
     14  CA         4.9690   -4.8980   -9.3940 C.3   178  ASN178      0.1653
     15  C          6.2440   -4.0910   -9.5470 C.2   178  ASN178      0.2266
     16  O          7.2640   -4.6060  -10.0140 O.2   178  ASN178     -0.2867
     17  CB         4.8580   -5.3890   -7.9420 C.3   178  ASN178      0.1155
     18  CG         3.4210   -5.5040   -7.4680 C.2   178  ASN178      0.2627
     19  OD1        2.6510   -4.5440   -7.5340 O.2   178  ASN178     -0.2716
     20  ND2        3.0540   -6.6830   -6.9740 N.am  178  ASN178     -0.0877
     21  N          9.1520   -2.1290   -7.4040 N.3   180  ASN180     -0.1240
     22  CA         9.7610   -2.2280   -6.0780 C.3   180  ASN180      0.1653
     23  C         10.8690   -1.1990   -5.8830 C.2   180  ASN180      0.2266
     24  O         11.6620   -0.9430   -6.7940 O.2   180  ASN180     -0.2867
     25  CB        10.3220   -3.6340   -5.8360 C.3   180  ASN180      0.1155
     26  CG         9.2410   -4.7010   -5.7810 C.2   180  ASN180      0.2627
     27  OD1        8.5160   -4.8150   -4.7890 O.2   180  ASN180     -0.2716
     28  ND2        9.1430   -5.5090   -6.8390 N.am  180  ASN180     -0.0877
     29  N          9.4680    1.6050    0.1440 N.3   223  ASP223     -0.1239
     30  CA         9.5180    0.2180    0.5750 C.3   223  ASP223      0.1674
     31  C          8.9110    0.1440    1.9720 C.2   223  ASP223      0.2266
     32  O          7.7480    0.5070    2.1670 O.2   223  ASP223     -0.2867
     33  CB        10.9540   -0.3020    0.5440 C.3   223  ASP223      0.1410
     34  CG        11.0290   -1.8130    0.5460 C.2   223  ASP223      0.3668
     35  OD1       10.4130   -2.4550   -0.3370 O.co2 223  ASP223     -0.2456
     36  OD2       11.7240   -2.3580    1.4310 O.co2 223  ASP223     -0.2456
     37  N          3.5750   -0.8350    2.6810 N.3   247  LYS247     -0.1245
     38  CA         4.1580   -1.9760    3.4070 C.3   247  LYS247      0.1561
     39  C          4.9400   -1.4960    4.6310 C.2   247  LYS247      0.2260
     40  O          6.0120   -0.9100    4.4980 O.2   247  LYS247     -0.2867
     41  CB         5.0720   -2.7940    2.4830 C.3   247  LYS247      0.0271
     42  CG         4.4090   -3.3010    1.2020 C.3   247  LYS247      0.0035
     43  CD         5.4320   -3.7960    0.1660 C.3   247  LYS247      0.0206
     44  CE         6.1820   -2.6370   -0.5040 C.3   247  LYS247      0.1093
     45  NZ         6.8910   -3.0260   -1.7690 N.3   247  LYS247     -0.1314
     46  N          8.2440   -5.5540    7.7950 N.3   250  ILE250     -0.1245
     47  CA         8.5280   -6.9250    7.3980 C.3   250  ILE250      0.1561
     48  C          9.6710   -7.4660    8.2530 C.2   250  ILE250      0.2260
     49  O         10.7950   -6.9470    8.2090 O.2   250  ILE250     -0.2867
     50  CB         8.7960   -7.0320    5.8700 C.3   250  ILE250      0.0252
     51  CG1        7.5050   -6.6750    5.1100 C.3   250  ILE250      0.0019
     52  CG2        9.2910   -8.4490    5.5010 C.3   250  ILE250      0.0019
     53  CD1        7.6240   -6.6020    3.6080 C.3   250  ILE250      0.0001
     54  N         12.9950  -11.6120    5.8940 N.3   253  SER253     -0.1217
     55  CA        12.8770  -11.1770    4.5070 C.3   253  SER253      0.1889
     56  C         12.7110  -12.3130    3.4960 C.2   253  SER253      0.2288
     57  O         12.4230  -12.0550    2.3260 O.2   253  SER253     -0.2866
     58  CB        14.0950  -10.3370    4.1270 C.3   253  SER253      0.2089
     59  OG        15.2510  -11.1560    4.0420 O.3   253  SER253     -0.2183
     60  N         -0.5700   -2.8920    4.5730 N.3   278  GLN278     -0.1245
     61  CA        -0.2050   -4.2670    4.9020 C.3   278  GLN278      0.1566
     62  C          1.0790   -4.3830    5.7100 C.2   278  GLN278      0.2260
     63  O          1.8290   -3.4090    5.8540 O.2   278  GLN278     -0.2867
     64  CB        -0.0650   -5.0920    3.6170 C.3   278  GLN278      0.0367
     65  CG         1.0110   -4.5820    2.6620 C.3   278  GLN278      0.0905
     66  CD         0.9590   -5.2670    1.3100 C.2   278  GLN278      0.2608
     67  OE1        0.9940   -6.4950    1.2220 O.2   278  GLN278     -0.2717
     68  NE2        0.8760   -4.4740    0.2450 N.am  278  GLN278     -0.0878
     69  N          4.4380   -8.1740    9.0530 N.3   282  ARG282     -0.1245
     70  CA         4.5130   -9.4570    8.3500 C.3   282  ARG282      0.1563
     71  C          5.7190  -10.2040    8.9140 C.2   282  ARG282      0.2260
     72  O          6.8390   -9.6880    8.8870 O.2   282  ARG282     -0.2867
     73  CB         4.6810   -9.2580    6.8410 C.3   282  ARG282      0.0307
     74  CG         4.5250  -10.5380    6.0160 C.3   282  ARG282      0.0489
     75  CD         5.3730  -10.4940    4.7480 C.3   282  ARG282      0.2205
     76  NE         5.0800  -11.6000    3.8340 N.pl3 282  ARG282     -0.0865
     77  CZ         5.5220  -12.8490    3.9780 C.cat 282  ARG282      0.5346
     78  NH1        6.2790  -13.1890    5.0180 N.pl3 282  ARG282      0.1354
     79  NH2        5.1970  -13.7660    3.0730 N.pl3 282  ARG282      0.1354
     80  N          8.1640  -13.7600    9.3570 N.3   284  ARG284     -0.1245
     81  CA         8.6570  -15.1130    9.1360 C.3   284  ARG284      0.1563
     82  C          9.4940  -15.5020   10.3490 C.2   284  ARG284      0.2260
     83  O         10.2730  -14.6800   10.8540 O.2   284  ARG284     -0.2867
     84  CB         9.5320  -15.1960    7.8820 C.3   284  ARG284      0.0307
     85  CG         8.8570  -14.8250    6.5730 C.3   284  ARG284      0.0489
     86  CD         9.8970  -14.7040    5.4630 C.3   284  ARG284      0.2205
     87  NE         9.2810  -14.6460    4.1350 N.pl3 284  ARG284     -0.0865
     88  CZ         9.0470  -13.5330    3.4420 C.cat 284  ARG284      0.5346
     89  NH1        9.3790  -12.3360    3.9220 N.pl3 284  ARG284      0.1354
     90  NH2        8.4730  -13.6180    2.2490 N.pl3 284  ARG284      0.1354
     91  N         -4.3690   -6.1250    5.2410 N.3   308  TYR308     -0.1241
     92  CA        -4.3090   -6.9460    6.4520 C.3   308  TYR308      0.1605
     93  C         -3.4420   -6.2790    7.5150 C.2   308  TYR308      0.2264
     94  O         -2.6500   -5.3940    7.2050 O.2   308  TYR308     -0.2867
     95  CB        -3.8020   -8.3650    6.1510 C.3   308  TYR308      0.0534
     96  CG        -2.3230   -8.4800    5.8220 C.ar  308  TYR308     -0.0201
     97  CD1       -1.3770   -8.6400    6.8350 C.ar  308  TYR308     -0.0009
     98  CD2       -1.8750   -8.4510    4.4980 C.ar  308  TYR308     -0.0009
     99  CE1       -0.0200   -8.7500    6.5450 C.ar  308  TYR308      0.0417
    100  CE2       -0.5140   -8.5690    4.1960 C.ar  308  TYR308      0.0417
    101  CZ         0.4050   -8.7170    5.2290 C.ar  308  TYR308      0.1957
    102  OH         1.7450   -8.8410    4.9550 O.3   308  TYR308     -0.2866
    103  N          0.3840  -16.8800    5.0020 N.3   339  PHE339     -0.1241
    104  CA         1.2540  -17.2460    3.8860 C.3   339  PHE339      0.1605
    105  C          1.7630  -18.6740    4.0560 C.2   339  PHE339      0.2264
    106  O          1.7510  -19.2160    5.1630 O.2   339  PHE339     -0.2867
    107  CB         2.4210  -16.2520    3.7800 C.3   339  PHE339      0.0534
    108  CG         1.9790  -14.8300    3.5920 C.ar  339  PHE339     -0.0203
    109  CD1        1.6620  -14.3450    2.3270 C.ar  339  PHE339     -0.0042
    110  CD2        1.8620  -13.9720    4.6880 C.ar  339  PHE339     -0.0042
    111  CE1        1.2410  -13.0230    2.1520 C.ar  339  PHE339     -0.0003
    112  CE2        1.4410  -12.6590    4.5260 C.ar  339  PHE339     -0.0003
    113  CZ         1.1300  -12.1770    3.2550 C.ar  339  PHE339     -0.0000
@<TRIPOS>BOND
     1    12    11    2
     2    13    14    1
     3    16    15    2
     4     1     2    1
     5    11    10    1
     6    15    14    1
     7    14    17    1
     8     4     3    2
     9     2     3    1
    10     2     5    1
    11     3     9   am
    12    10     9    1
    13     5     6    1
    14    17    18    1
    15    19    18    2
    16    18    20   am
    17    21    22    1
    18    28    26   am
    19    24    23    2
    20     6     8   ar
    21     6     7   ar
    22    22    23    1
    23    22    25    1
    24    25    26    1
    25    26    27    2
    26    45    44    1
    27    44    43    1
    28    35    34   ar
    29    29    30    1
    30    43    42    1
    31    68    66   am
    32    33    34    1
    33    33    30    1
    34    34    36   ar
    35    30    31    1
    36    42    41    1
    37    67    66    2
    38    66    65    1
    39    31    32    2
    40   111   109   ar
    41   111   113   ar
    42    90    88    1
    43    57    56    2
    44   109   108   ar
    45    41    38    1
    46    65    64    1
    47    37    38    1
    48    79    77    1
    49   113   112   ar
    50    38    39    1
    51    88    89    1
    52    88    87    2
    53    56    55    1
    54   108   107    1
    55   108   110   ar
    56    53    51    1
    57    64    61    1
    58   107   104    1
    59    76    77    2
    60    76    75    1
    61   104   105    1
    62   104   103    1
    63    77    78    1
    64    59    58    1
    65   105   106    2
    66    58    55    1
    67    87    86    1
    68   100    98   ar
    69   100   101   ar
    70    40    39    2
    71    98    96   ar
    72    55    54    1
    73   112   110   ar
    74    60    61    1
    75    75    74    1
    76    61    62    1
    77   102   101    1
    78    51    50    1
    79   101    99   ar
    80    91    92    1
    81    86    85    1
    82    52    50    1
    83    62    63    2
    84    96    95    1
    85    96    97   ar
    86    50    47    1
    87    74    73    1
    88    95    92    1
    89    92    93    1
    90    99    97   ar
    91    85    84    1
    92    73    70    1
    93    94    93    2
    94    47    46    1
    95    47    48    1
    96    84    81    1
    97    49    48    2
    98    70    71    1
    99    70    69    1
   100    72    71    2
   101    81    80    1
   102    81    82    1
   103    82    83    2
