@<TRIPOS>MOLECULE
tmp/2o06A00.pdb
 154 144 0 0 0
SMALL
GASTEIGER

@<TRIPOS>ATOM
      1  N         -0.2520   25.3690    9.3050 N.3    44  GLN44      -0.1245
      2  CA         0.4170   26.6300    9.6120 C.3    44  GLN44       0.1566
      3  C          0.0450   27.7140    8.6170 C.2    44  GLN44       0.2260
      4  O         -0.5430   27.4330    7.5500 O.2    44  GLN44      -0.2867
      5  CB         1.9440   26.4310    9.6080 C.3    44  GLN44       0.0367
      6  CG         2.5180   25.8920    8.2750 C.3    44  GLN44       0.0905
      7  CD         3.8570   25.2020    8.4560 C.2    44  GLN44       0.2608
      8  OE1        4.6930   25.6490    9.2440 O.2    44  GLN44      -0.2717
      9  NE2        4.0730   24.1110    7.7230 N.am   44  GLN44      -0.0878
     10  N          9.8880   32.3480    1.4260 N.3    58  LEU58      -0.1245
     11  CA         8.8930   31.5220    2.1180 C.3    58  LEU58       0.1561
     12  C          8.8590   31.8590    3.6070 C.2    58  LEU58       0.2260
     13  O          9.8980   31.8770    4.2810 O.2    58  LEU58      -0.2867
     14  CB         9.1690   30.0260    1.9360 C.3    58  LEU58       0.0270
     15  CG         8.3230   29.0320    2.7530 C.3    58  LEU58       0.0019
     16  CD1        6.8400   29.1080    2.3960 C.3    58  LEU58       0.0001
     17  CD2        8.8350   27.6040    2.5440 C.3    58  LEU58       0.0001
     18  N          6.7650   30.8720    7.2170 N.3    60  LEU60      -0.1245
     19  CA         5.8570   29.9500    7.9070 C.3    60  LEU60       0.1561
     20  C          5.6260   30.4340    9.3380 C.2    60  LEU60       0.2260
     21  O          6.5830   30.6000   10.0880 O.2    60  LEU60      -0.2867
     22  CB         6.4250   28.5290    7.9210 C.3    60  LEU60       0.0270
     23  CG         6.5690   27.8220    6.5740 C.3    60  LEU60       0.0019
     24  CD1        7.1640   26.4250    6.8290 C.3    60  LEU60       0.0001
     25  CD2        5.2220   27.6880    5.7950 C.3    60  LEU60       0.0001
     26  N         11.6550   31.1140    6.3080 N.3    65  GLN65      -0.1245
     27  CA        12.2530   29.7670    6.1360 C.3    65  GLN65       0.1566
     28  C         13.3860   29.7870    5.1210 C.2    65  GLN65       0.2260
     29  O         14.4250   29.1290    5.2930 O.2    65  GLN65      -0.2867
     30  CB        11.1820   28.7720    5.6900 C.3    65  GLN65       0.0367
     31  CG        10.0350   28.7020    6.6460 C.3    65  GLN65       0.0905
     32  CD        10.4570   28.1670    7.9880 C.2    65  GLN65       0.2608
     33  OE1       10.9650   27.0530    8.0830 O.2    65  GLN65      -0.2717
     34  NE2       10.2600   28.9630    9.0390 N.am   65  GLN65      -0.0878
     35  N         13.9110   15.0150    7.7200 N.3    95  ILE95      -0.1231
     36  CA        12.6720   15.3630    8.3970 C.3    95  ILE95       0.1692
     37  C         12.4020   16.8500    8.1560 C.2    95  ILE95       0.2593
     38  O         13.2750   17.6900    8.3790 O.2    95  ILE95      -0.2718
     39  CB        12.7170   15.0040    9.9250 C.3    95  ILE95       0.0266
     40  CG1       12.9350   13.4920   10.1250 C.3    95  ILE95       0.0019
     41  CG2       11.4180   15.4290   10.6400 C.3    95  ILE95       0.0020
     42  CD1       11.8250   12.6050    9.5010 C.3    95  ILE95       0.0001
     43  N         11.2180   17.1690    7.6590 N.am   96  GLY96      -0.1942
     44  CA        10.9340   18.5420    7.2500 C.3    96  GLY96       0.2014
     45  C         11.4600   18.7900    5.8460 C.2    96  GLY96       0.2639
     46  O         11.2540   17.9740    4.9610 O.2    96  GLY96      -0.2714
     47  N         12.1290   19.9210    5.6380 N.am   97  GLY97      -0.1939
     48  CA        12.7230   20.2140    4.3360 C.3    97  GLY97       0.2014
     49  C         11.7030   20.4130    3.2240 C.2    97  GLY97       0.2639
     50  O         11.9540   20.0370    2.0820 O.2    97  GLY97      -0.2714
     51  N         10.5610   21.0230    3.5560 N.am   98  GLY98      -0.1939
     52  CA         9.4440   21.1630    2.6120 C.3    98  GLY98       0.2014
     53  C          9.7000   21.8980    1.3120 C.2    98  GLY98       0.2638
     54  O          9.0140   21.6690    0.3110 O.2    98  GLY98      -0.2714
     55  N         10.6860   22.7850    1.3260 N.am   99  ASP99      -0.1971
     56  CA        11.0750   23.5390    0.1340 C.3    99  ASP99       0.1709
     57  C         11.8460   22.6930   -0.8890 C.2    99  ASP99       0.2293
     58  O         11.9960   23.1140   -2.0410 O.2    99  ASP99      -0.2864
     59  CB        11.8980   24.7700    0.5250 C.3    99  ASP99       0.1436
     60  CG        13.0580   24.4230    1.4450 C.2    99  ASP99       0.3671
     61  OD1       14.1000   23.9330    0.9610 O.co2  99  ASP99      -0.2456
     62  OD2       12.9150   24.6470    2.6600 O.co2  99  ASP99      -0.2456
     63  N         10.2030   12.9990    5.2000 N.3   118  CYS118     -0.1221
     64  CA         8.9090   13.0280    5.8380 C.3   118  CYS118      0.1808
     65  C          8.6360   14.4740    6.1610 C.2   118  CYS118      0.2601
     66  O          9.3260   15.0570    7.0030 O.2   118  CYS118     -0.2717
     67  CB         8.8930   12.1680    7.0980 C.3   118  CYS118      0.0970
     68  SG         7.2400   12.1170    7.8350 S.3   118  CYS118     -0.0800
     69  N          7.6730   15.0490    5.4430 N.am  119  GLU119     -0.1965
     70  CA         7.2560   16.4470    5.6190 C.3   119  GLU119      0.1733
     71  C          5.7910   16.4540    6.0560 C.2   119  GLU119      0.2616
     72  O          4.9670   15.8050    5.4420 O.2   119  GLU119     -0.2715
     73  CB         7.4780   17.2400    4.3030 C.3   119  GLU119      0.0429
     74  CG         6.6130   18.5100    4.1160 C.3   119  GLU119      0.1163
     75  CD         6.9410   19.6110    5.0870 C.2   119  GLU119      0.3649
     76  OE1        8.1270   19.9590    5.2290 O.co2 119  GLU119     -0.2457
     77  OE2        6.0040   20.1420    5.7230 O.co2 119  GLU119     -0.2457
     78  N          5.4840   17.2040    7.1100 N.am  120  ILE120     -0.1977
     79  CA         4.1210   17.2450    7.7000 C.3   120  ILE120      0.1596
     80  C          3.0320   17.9160    6.8430 C.2   120  ILE120      0.2287
     81  O          1.8590   17.5120    6.8880 O.2   120  ILE120     -0.2864
     82  CB         4.1400   17.8430    9.1460 C.3   120  ILE120      0.0276
     83  CG1        2.9330   17.3850    9.9700 C.3   120  ILE120      0.0022
     84  CG2        4.2470   19.3780    9.1540 C.3   120  ILE120      0.0022
     85  CD1        3.0160   17.7940   11.4370 C.3   120  ILE120      0.0001
     86  N          2.9400   23.1490    1.8800 N.3   124  VAL124     -0.1245
     87  CA         4.3040   23.7080    1.7370 C.3   124  VAL124      0.1561
     88  C          4.9710   23.1220    0.4950 C.2   124  VAL124      0.2260
     89  O          5.6220   23.8410   -0.2700 O.2   124  VAL124     -0.2867
     90  CB         5.2040   23.4360    2.9800 C.3   124  VAL124      0.0252
     91  CG1        6.6250   23.9110    2.7160 C.3   124  VAL124      0.0019
     92  CG2        4.6190   24.1140    4.2380 C.3   124  VAL124      0.0019
     93  N          3.7120   13.4940    6.7100 N.3   149  GLY149     -0.1210
     94  CA         3.3150   13.1690    8.0670 C.3   149  GLY149      0.1956
     95  C          4.2290   13.8410    9.0630 C.2   149  GLY149      0.2612
     96  O          5.2050   14.5010    8.6840 O.2   149  GLY149     -0.2717
     97  N          3.9150   13.6580   10.3360 N.am  150  ASP150     -0.1959
     98  CA         4.7430   14.1610   11.4130 C.3   150  ASP150      0.1840
     99  C          6.0100   13.3010   11.5220 C.2   150  ASP150      0.2622
    100  O          5.9340   12.0780   11.6640 O.2   150  ASP150     -0.2715
    101  CB         3.9390   14.1660   12.7230 C.3   150  ASP150      0.1450
    102  CG         4.8160   14.3160   13.9540 C.2   150  ASP150      0.3671
    103  OD1        5.7980   15.1040   13.9460 O.co2 150  ASP150     -0.2456
    104  OD2        4.5230   13.6060   14.9370 O.co2 150  ASP150     -0.2456
    105  N          7.1700   13.9480   11.4230 N.am  151  GLY151     -0.1954
    106  CA         8.4620   13.2670   11.4630 C.3   151  GLY151      0.1869
    107  C          8.7900   12.5930   12.7970 C.2   151  GLY151      0.2309
    108  O          9.5630   11.6410   12.8230 O.2   151  GLY151     -0.2863
    109  N         15.5660   19.2210    9.0470 N.3   168  ASP168     -0.1225
    110  CA        15.5580   20.5560    8.4940 C.3   168  ASP168      0.1805
    111  C         14.2530   21.2070    8.8990 C.2   168  ASP168      0.2598
    112  O         13.2780   21.1860    8.1370 O.2   168  ASP168     -0.2718
    113  CB        15.7000   20.5190    6.9630 C.3   168  ASP168      0.1424
    114  CG        15.4520   21.8940    6.3170 C.2   168  ASP168      0.3668
    115  OD1       15.4590   22.9230    7.0500 O.co2 168  ASP168     -0.2456
    116  OD2       15.2170   21.9400    5.0870 O.co2 168  ASP168     -0.2456
    117  N         14.2590   21.7950   10.0920 N.am  169  SER169     -0.1938
    118  CA        13.0490   22.3140   10.7150 C.3   169  SER169      0.2055
    119  C         13.0990   23.8380   10.8530 C.2   169  SER169      0.2643
    120  O         14.1850   24.4390   10.7720 O.2   169  SER169     -0.2714
    121  CB        12.8760   21.6890   12.1010 C.3   169  SER169      0.2130
    122  OG        13.9310   22.0770   12.9810 O.3   169  SER169     -0.2179
    123  N         11.9310   24.4480   11.0710 N.am  170  SER170     -0.1949
    124  CA        11.8770   25.7950   11.6450 C.3   170  SER170      0.1924
    125  C         12.1780   25.6990   13.1490 C.2   170  SER170      0.2314
    126  O         12.7560   24.7050   13.6210 O.2   170  SER170     -0.2863
    127  CB        10.5240   26.4950   11.3820 C.3   170  SER170      0.2116
    128  OG        10.5390   27.8740   11.8370 O.3   170  SER170     -0.2180
    129  N          4.2850   23.0740   14.8650 N.3   175  PRO175     -0.2102
    130  CA         4.4290   21.6420   14.5790 C.3   175  PRO175      0.1504
    131  C          5.8520   21.1000   14.7670 C.2   175  PRO175      0.2575
    132  O          6.0350   19.8730   14.8280 O.2   175  PRO175     -0.2718
    133  CB         3.9640   21.5170   13.1160 C.3   175  PRO175      0.0282
    134  CG         4.1140   22.8880   12.5320 C.3   175  PRO175      0.0208
    135  CD         3.9170   23.8590   13.6670 C.3   175  PRO175      0.0893
    136  N          6.8360   22.0010   14.8750 N.am  176  ALA176     -0.1980
    137  CA         8.2600   21.6210   14.9620 C.3   176  ALA176      0.1597
    138  C          8.7550   21.3920   16.3870 C.2   176  ALA176      0.2287
    139  O          9.8660   20.9080   16.5810 O.2   176  ALA176     -0.2864
    140  CB         9.1440   22.6680   14.2760 C.3   176  ALA176      0.0319
    141  N          8.3260   19.3410   18.9550 N.3   178  SER178     -0.1202
    142  CA         8.7950   18.0160   19.4020 C.3   178  SER178      0.2020
    143  C         10.1440   17.6180   18.7870 C.2   178  SER178      0.2618
    144  O         10.8300   16.7330   19.2990 O.2   178  SER178     -0.2717
    145  CB         7.7280   16.9390   19.1120 C.3   178  SER178      0.2103
    146  OG         7.6160   16.7270   17.7050 O.3   178  SER178     -0.2182
    147  N         10.5210   18.2850   17.6940 N.am  179  LEU179     -0.1979
    148  CA        11.7610   17.9810   16.9670 C.3   179  LEU179      0.1596
    149  C         13.0280   18.4340   17.6870 C.2   179  LEU179      0.2287
    150  O         14.1320   18.0850   17.2800 O.2   179  LEU179     -0.2864
    151  CB        11.7080   18.5500   15.5400 C.3   179  LEU179      0.0297
    152  CG        10.5300   18.0660   14.6730 C.3   179  LEU179      0.0022
    153  CD1       10.6570   18.6140   13.2660 C.3   179  LEU179      0.0001
    154  CD2       10.3640   16.5220   14.6730 C.3   179  LEU179      0.0001
@<TRIPOS>BOND
     1    58    57    2
     2    57    56    1
     3    89    88    2
     4    56    59    1
     5    56    55    1
     6    54    53    2
     7    88    87    1
     8    59    60    1
     9    61    60   ar
    10    53    55   am
    11    53    52    1
    12    10    11    1
    13    60    62   ar
    14    87    86    1
    15    87    90    1
    16    14    11    1
    17    14    15    1
    18    50    49    2
    19    11    12    1
    20    16    15    1
    21    17    15    1
    22    52    51    1
    23    91    90    1
    24    90    92    1
    25    49    51   am
    26    49    48    1
    27    12    13    2
    28    74    73    1
    29    74    75    1
    30    73    70    1
    31    48    47    1
    32    46    45    2
    33    75    76   ar
    34    75    77   ar
    35   116   114   ar
    36    28    29    2
    37    28    27    1
    38    63    64    1
    39    72    71    2
    40    69    70    1
    41    69    65   am
    42    70    71    1
    43    47    45   am
    44    30    27    1
    45    30    31    1
    46    25    23    1
    47    64    65    1
    48    64    67    1
    49    45    44    1
    50    71    78   am
    51    27    26    1
    52    65    66    2
    53   114   113    1
    54   114   115   ar
    55    23    24    1
    56    23    22    1
    57    31    32    1
    58    93    94    1
    59    80    81    2
    60    80    79    1
    61   113   110    1
    62    67    68    1
    63    78    79    1
    64    18    19    1
    65    44    43    1
    66     4     3    2
    67    43    37   am
    68    79    82    1
    69    35    36    1
    70     9     7   am
    71    19    22    1
    72    19    20    1
    73    32    33    2
    74    32    34   am
    75    94    95    1
    76   112   111    2
    77    37    38    2
    78    37    36    1
    79     6     7    1
    80     6     5    1
    81    36    39    1
    82     7     8    2
    83   110   111    1
    84   110   109    1
    85     3     2    1
    86    96    95    2
    87   111   117   am
    88    95    97   am
    89    82    84    1
    90    82    83    1
    91     1     2    1
    92    20    21    2
    93    42    40    1
    94     5     2    1
    95    39    40    1
    96    39    41    1
    97    83    85    1
    98   117   118    1
    99    97    98    1
   100   118   119    1
   101   118   121    1
   102   120   119    2
   103   119   123   am
   104   123   124    1
   105   127   124    1
   106   127   128    1
   107    98    99    1
   108    98   101    1
   109   105   106    1
   110   105    99   am
   111   106   107    1
   112    99   100    2
   113   124   125    1
   114   121   122    1
   115   134   133    1
   116   134   135    1
   117   101   102    1
   118   107   108    2
   119   133   130    1
   120   125   126    2
   121   153   152    1
   122   135   129    1
   123   103   102   ar
   124   102   104   ar
   125   140   137    1
   126   130   131    1
   127   130   129    1
   128   152   154    1
   129   152   151    1
   130   131   132    2
   131   131   136   am
   132   136   137    1
   133   137   138    1
   134   151   148    1
   135   138   139    2
   136   148   149    1
   137   148   147    1
   138   150   149    2
   139   147   143   am
   140   146   145    1
   141   143   144    2
   142   143   142    1
   143   141   142    1
   144   145   142    1
