@<TRIPOS>MOLECULE
tmp/2o07A00.pdb
 138 134 0 0 0
SMALL
GASTEIGER

@<TRIPOS>ATOM
      1  N         16.0330   52.8810   13.7520 N.3     8  GLU8       -0.1245
      2  CA        15.4070   54.1580   14.1040 C.3     8  GLU8        0.1567
      3  C         15.8740   54.6580   15.4830 C.2     8  GLU8        0.2260
      4  O         15.5430   54.0420   16.5090 O.2     8  GLU8       -0.2867
      5  CB        13.8880   53.9800   14.1600 C.3     8  GLU8        0.0388
      6  CG        13.1530   55.2910   14.3470 C.3     8  GLU8        0.1160
      7  CD        11.7130   55.0850   14.7770 C.2     8  GLU8        0.3649
      8  OE1       11.4550   54.3140   15.7430 O.co2   8  GLU8       -0.2457
      9  OE2       10.8430   55.6830   14.1210 O.co2   8  GLU8       -0.2457
     10  N         13.0780   59.2760   22.3060 N.3    13  TRP13      -0.1241
     11  CA        13.0150   57.9780   22.9530 C.3    13  TRP13       0.1605
     12  C         14.4350   57.4500   23.1640 C.2    13  TRP13       0.2264
     13  O         14.8450   56.4620   22.5530 O.2    13  TRP13      -0.2867
     14  CB        12.1270   56.9810   22.1970 C.3    13  TRP13       0.0550
     15  CG        12.2710   56.9140   20.6890 C.ar   13  TRP13       0.0003
     16  CD1       13.0330   56.0190   19.9750 C.ar   13  TRP13       0.0946
     17  CD2       11.5910   57.7310   19.7100 C.ar   13  TRP13       0.0152
     18  NE1       12.8780   56.2410   18.6160 N.ar   13  TRP13      -0.2442
     19  CE2       11.9860   57.2650   18.4280 C.ar   13  TRP13       0.0810
     20  CE3       10.6650   58.7770   19.7950 C.ar   13  TRP13       0.0012
     21  CZ2       11.4980   57.8310   17.2320 C.ar   13  TRP13       0.0191
     22  CZ3       10.1680   59.3420   18.6040 C.ar   13  TRP13       0.0001
     23  CH2       10.6030   58.8750   17.3420 C.ar   13  TRP13       0.0015
     24  N         12.4920   59.1490   11.1900 N.3    53  VAL53      -0.1231
     25  CA        11.4180   58.5530   11.9980 C.3    53  VAL53       0.1692
     26  C         10.4330   57.7220   11.1550 C.2    53  VAL53       0.2592
     27  O          9.9060   58.2210   10.1630 O.2    53  VAL53      -0.2718
     28  CB        10.5610   59.6340   12.6910 C.3    53  VAL53       0.0266
     29  CG1        9.4900   58.9950   13.5530 C.3    53  VAL53       0.0020
     30  CG2       11.4090   60.5790   13.5560 C.3    53  VAL53       0.0020
     31  N         10.1420   56.4860   11.5850 N.am   54  ILE54      -0.1966
     32  CA         9.1960   55.6240   10.8640 C.3    54  ILE54       0.1727
     33  C          7.7980   56.2520   10.9260 C.2    54  ILE54       0.2616
     34  O          7.3220   56.5790   12.0170 O.2    54  ILE54      -0.2715
     35  CB         9.1380   54.1790   11.4550 C.3    54  ILE54       0.0290
     36  CG1       10.5160   53.5140   11.4150 C.3    54  ILE54       0.0022
     37  CG2        8.0580   53.3250   10.7090 C.3    54  ILE54       0.0023
     38  CD1       10.6840   52.2560   12.3310 C.3    54  ILE54       0.0001
     39  N          7.1880   56.4600    9.7590 N.am   55  GLN55      -0.1963
     40  CA         5.8200   56.9770    9.6330 C.3    55  GLN55       0.1733
     41  C          4.8220   55.8480    9.4860 C.2    55  GLN55       0.2616
     42  O          3.7600   55.8690   10.0870 O.2    55  GLN55      -0.2715
     43  CB         5.7180   57.9230    8.4170 C.3    55  GLN55       0.0408
     44  CG         6.6760   59.1310    8.4810 C.3    55  GLN55       0.0908
     45  CD         6.4740   59.9820    9.7520 C.2    55  GLN55       0.2608
     46  OE1        7.3570   60.0440   10.6330 O.2    55  GLN55      -0.2717
     47  NE2        5.3070   60.5850    9.8740 N.am   55  GLN55      -0.0878
     48  N          5.1250   54.8800    8.6300 N.am   56  CYS56      -0.1968
     49  CA         4.2290   53.7180    8.4360 C.3    56  CYS56       0.1712
     50  C          4.9200   52.5220    7.8380 C.2    56  CYS56       0.2296
     51  O          5.9950   52.6480    7.2310 O.2    56  CYS56      -0.2864
     52  CB         2.9570   54.0400    7.6480 C.3    56  CYS56       0.0983
     53  SG         3.1110   55.2820    6.3960 S.3    56  CYS56      -0.0798
     54  N         -3.1520   52.2680   13.4800 N.3    64  TYR64      -0.1227
     55  CA        -3.1330   53.7130   13.6990 C.3    64  TYR64       0.1736
     56  C         -4.1330   54.4440   12.7530 C.2    64  TYR64       0.2595
     57  O         -4.8620   55.3740   13.1820 O.2    64  TYR64      -0.2718
     58  CB        -1.7000   54.2260   13.5100 C.3    64  TYR64       0.0548
     59  CG        -1.5220   55.7340   13.5550 C.ar   64  TYR64      -0.0200
     60  CD1       -1.3030   56.4000   14.7640 C.ar   64  TYR64      -0.0009
     61  CD2       -1.5870   56.4930   12.3790 C.ar   64  TYR64      -0.0009
     62  CE1       -1.1300   57.7990   14.7940 C.ar   64  TYR64       0.0417
     63  CE2       -1.4230   57.8630   12.4080 C.ar   64  TYR64       0.0417
     64  CZ        -1.1850   58.5070   13.6110 C.ar   64  TYR64       0.1957
     65  OH        -1.0140   59.8800   13.5960 O.3    64  TYR64      -0.2866
     66  N         -4.2070   53.9830   11.5030 N.am   65  GLN65      -0.1979
     67  CA        -5.0540   54.6590   10.4960 C.3    65  GLN65       0.1601
     68  C         -6.5240   54.4970   10.8730 C.2    65  GLN65       0.2287
     69  O         -7.2830   55.4820   10.9020 O.2    65  GLN65      -0.2864
     70  CB        -4.7280   54.1610    9.0610 C.3    65  GLN65       0.0394
     71  CG        -3.8400   55.1200    8.2100 C.3    65  GLN65       0.0908
     72  CD        -2.4950   55.4950    8.8440 C.2    65  GLN65       0.2608
     73  OE1       -2.1580   56.6640    8.9360 O.2    65  GLN65      -0.2717
     74  NE2       -1.7110   54.5020    9.2450 N.am   65  GLN65      -0.0878
     75  N          0.4460   60.1020    3.4340 N.3    89  ASP89      -0.1239
     76  CA         0.3720   58.7650    2.8410 C.3    89  ASP89       0.1674
     77  C         -1.0120   58.4150    2.2760 C.2    89  ASP89       0.2266
     78  O         -1.1150   57.4920    1.4940 O.2    89  ASP89      -0.2867
     79  CB         0.8340   57.7200    3.8630 C.3    89  ASP89       0.1410
     80  CG         0.1930   57.9480    5.2160 C.2    89  ASP89       0.3668
     81  OD1        0.9150   58.4300    6.1180 O.co2  89  ASP89      -0.2456
     82  OD2       -1.0400   57.7110    5.3330 O.co2  89  ASP89      -0.2456
     83  N         -2.9260   64.1640   11.5410 N.3   158  ASP158     -0.1225
     84  CA        -2.1030   63.0070   11.2680 C.3   158  ASP158      0.1805
     85  C         -0.7010   63.5090   10.9150 C.2   158  ASP158      0.2598
     86  O         -0.3530   63.5830    9.7340 O.2   158  ASP158     -0.2718
     87  CB        -2.7050   62.2190   10.0880 C.3   158  ASP158      0.1424
     88  CG        -1.8810   60.9940    9.7280 C.2   158  ASP158      0.3668
     89  OD1       -1.1670   60.4860   10.6050 O.co2 158  ASP158     -0.2456
     90  OD2       -1.9290   60.5640    8.5660 O.co2 158  ASP158     -0.2456
     91  N          0.1060   63.8210   11.9440 N.am  159  SER159     -0.1938
     92  CA         1.3260   64.6060   11.7730 C.3   159  SER159      0.2055
     93  C          2.6120   63.7950   11.8020 C.2   159  SER159      0.2643
     94  O          2.6920   62.7740   12.4810 O.2   159  SER159     -0.2714
     95  CB         1.4230   65.6780   12.8790 C.3   159  SER159      0.2130
     96  OG         1.2950   65.0740   14.1740 O.3   159  SER159     -0.2179
     97  N          3.6210   64.2930   11.0770 N.am  160  SER160     -0.1949
     98  CA         4.9620   63.7690   11.1830 C.3   160  SER160      0.1924
     99  C          5.5400   64.2860   12.5050 C.2   160  SER160      0.2314
    100  O          6.7570   64.2360   12.7290 O.2   160  SER160     -0.2863
    101  CB         5.7710   64.2430   10.0440 C.3   160  SER160      0.2116
    102  OG         7.0490   63.8450   10.0760 O.3   160  SER160     -0.2180
    103  N         -2.6110   63.0240   16.9850 N.3   180  GLN180     -0.1245
    104  CA        -1.6040   62.0750   17.4550 C.3   180  GLN180      0.1566
    105  C         -1.1520   62.5970   18.8210 C.2   180  GLN180      0.2260
    106  O         -0.8350   63.7870   18.9490 O.2   180  GLN180     -0.2867
    107  CB        -0.4450   62.0600   16.4490 C.3   180  GLN180      0.0367
    108  CG         0.6700   61.0880   16.6980 C.3   180  GLN180      0.0905
    109  CD         2.0290   61.7870   16.6180 C.2   180  GLN180      0.2608
    110  OE1        2.2930   62.5820   15.7110 O.2   180  GLN180     -0.2717
    111  NE2        2.8730   61.5180   17.5880 N.am  180  GLN180     -0.0878
    112  N          5.7100   51.8420   15.9530 N.3   215  TYR215     -0.1228
    113  CA         5.9870   53.1140   16.6370 C.3   215  TYR215      0.1721
    114  C          6.7710   52.8480   17.9410 C.2   215  TYR215      0.2437
    115  O          6.6650   51.7750   18.5140 O.2   215  TYR215     -0.2733
    116  CB         4.6950   53.9200   16.9040 C.3   215  TYR215      0.0547
    117  CG         4.0710   54.5260   15.6400 C.ar  215  TYR215     -0.0200
    118  CD1        4.8630   54.8650   14.5260 C.ar  215  TYR215     -0.0009
    119  CD2        2.7130   54.7580   15.5710 C.ar  215  TYR215     -0.0009
    120  CE1        4.2900   55.4090   13.3690 C.ar  215  TYR215      0.0417
    121  CE2        2.1320   55.2870   14.4240 C.ar  215  TYR215      0.0417
    122  CZ         2.9300   55.6140   13.3320 C.ar  215  TYR215      0.1957
    123  OH         2.3170   56.1520   12.2200 O.3   215  TYR215     -0.2866
    124  N          7.5740   53.8280   18.4020 N.am  216  PRO216     -0.2729
    125  CA         8.3980   53.6410   19.6140 C.3   216  PRO216      0.1401
    126  C          7.5960   53.0370   20.7750 C.2   216  PRO216      0.2269
    127  O          6.4590   53.4790   21.0740 O.2   216  PRO216     -0.2865
    128  CB         8.8420   55.0660   19.9350 C.3   216  PRO216      0.0296
    129  CG         9.0170   55.6900   18.5670 C.3   216  PRO216      0.0237
    130  CD         7.8170   55.1500   17.7780 C.3   216  PRO216      0.0939
    131  N          0.9150   54.1510   20.5720 N.3   220  ILE220     -0.1245
    132  CA         0.8210   55.5990   20.5070 C.3   220  ILE220      0.1561
    133  C         -0.5860   56.0200   20.9100 C.2   220  ILE220      0.2260
    134  O         -1.5610   55.2690   20.7480 O.2   220  ILE220     -0.2867
    135  CB         1.1650   56.1510   19.1000 C.3   220  ILE220      0.0252
    136  CG1        1.5840   57.6230   19.1640 C.3   220  ILE220      0.0019
    137  CG2        0.0810   55.8540   18.0420 C.3   220  ILE220      0.0019
    138  CD1        2.3690   58.0190   17.9500 C.3   220  ILE220      0.0001
@<TRIPOS>BOND
     1    78    77    2
     2    77    76    1
     3    76    75    1
     4    76    79    1
     5    79    80    1
     6    80    82   ar
     7    80    81   ar
     8    53    52    1
     9    51    50    2
    10    52    49    1
    11    50    49    1
    12    71    72    1
    13    71    70    1
    14    43    44    1
    15    43    40    1
    16    49    48    1
    17    44    45    1
    18    90    88   ar
    19    48    41   am
    20    72    73    2
    21    72    74   am
    22    70    67    1
    23    41    40    1
    24    41    42    2
    25    40    39    1
    26    88    87    1
    27    88    89   ar
    28    86    85    2
    29    45    47   am
    30    45    46    2
    31    39    33   am
    32   101   102    1
    33   101    98    1
    34    87    84    1
    35    27    26    2
    36    67    68    1
    37    67    66    1
    38    37    35    1
    39    32    33    1
    40    32    35    1
    41    32    31    1
    42    68    69    2
    43    85    84    1
    44    85    91   am
    45    33    34    2
    46    97    98    1
    47    97    93   am
    48    26    31   am
    49    26    25    1
    50    98    99    1
    51    24    25    1
    52    84    83    1
    53    36    35    1
    54    36    38    1
    55    66    56   am
    56    92    93    1
    57    92    91    1
    58    92    95    1
    59    93    94    2
    60    25    28    1
    61   123   122    1
    62    61    63   ar
    63    61    59   ar
    64    63    64   ar
    65    99   100    2
    66    28    29    1
    67    28    30    1
    68    56    57    2
    69    56    55    1
    70    95    96    1
    71   122   120   ar
    72   122   121   ar
    73   120   118   ar
    74    54    55    1
    75    58    59    1
    76    58    55    1
    77    59    60   ar
    78    65    64    1
    79    64    62   ar
    80     1     2    1
    81     2     5    1
    82     2     3    1
    83     9     7   ar
    84     5     6    1
    85     6     7    1
    86   121   119   ar
    87   118   117   ar
    88    60    62   ar
    89     7     8   ar
    90     3     4    2
    91   119   117   ar
    92   117   116    1
    93   110   109    2
    94   112   113    1
    95   107   108    1
    96   107   104    1
    97   109   108    1
    98   109   111   am
    99   113   116    1
   100   113   114    1
   101   103   104    1
   102    21    23   ar
   103    21    19   ar
   104    23    22   ar
   105   104   105    1
   106   130   124    1
   107   130   129    1
   108   114   124   am
   109   114   115    2
   110   138   136    1
   111   137   135    1
   112   124   125    1
   113    19    18   ar
   114    19    17   ar
   115   129   128    1
   116    22    20   ar
   117    18    16   ar
   118   105   106    2
   119   135   136    1
   120   135   132    1
   121   125   128    1
   122   125   126    1
   123    17    20   ar
   124    17    15   ar
   125    16    15   ar
   126   132   131    1
   127   132   133    1
   128    15    14    1
   129   134   133    2
   130   126   127    2
   131    14    11    1
   132    10    11    1
   133    13    12    2
   134    11    12    1
