@<TRIPOS>MOLECULE
tmp/2o08A00.pdb
 139 132 0 0 0
SMALL
GASTEIGER

@<TRIPOS>ATOM
      1  N         68.3470   16.3830   -1.9840 N.3    53  LYS53      -0.1245
      2  CA        69.1070   17.6160   -1.7390 C.3    53  LYS53       0.1561
      3  C         70.1830   17.8410   -2.8090 C.2    53  LYS53       0.2260
      4  O         70.3450   18.9370   -3.3030 O.2    53  LYS53      -0.2867
      5  CB        69.7250   17.5470   -0.3380 C.3    53  LYS53       0.0271
      6  CG        70.5810   18.6910    0.0930 C.3    53  LYS53       0.0035
      7  CD        69.8270   19.8500    0.6220 C.3    53  LYS53       0.0206
      8  CE        70.8410   20.8980    1.0710 C.3    53  LYS53       0.1093
      9  NZ        70.0460   21.9900    1.6420 N.3    53  LYS53      -0.1314
     10  N         60.8890   31.1100   -6.1750 N.3    75  TYR75      -0.1241
     11  CA        61.3050   31.4430   -4.8090 C.3    75  TYR75       0.1605
     12  C         62.5700   30.7640   -4.2490 C.2    75  TYR75       0.2264
     13  O         62.7170   30.6460   -3.0350 O.2    75  TYR75      -0.2867
     14  CB        60.1260   31.1840   -3.8820 C.3    75  TYR75       0.0534
     15  CG        58.9180   31.9980   -4.2330 C.ar   75  TYR75      -0.0201
     16  CD1       58.7640   33.2860   -3.7480 C.ar   75  TYR75      -0.0009
     17  CD2       57.9280   31.4890   -5.0640 C.ar   75  TYR75      -0.0009
     18  CE1       57.6510   34.0530   -4.0740 C.ar   75  TYR75       0.0417
     19  CE2       56.8010   32.2440   -5.3990 C.ar   75  TYR75       0.0417
     20  CZ        56.6690   33.5300   -4.8950 C.ar   75  TYR75       0.1957
     21  OH        55.5690   34.2910   -5.2070 O.3    75  TYR75      -0.2866
     22  N         66.4240   26.2340   -3.0170 N.3    78  GLU78      -0.1231
     23  CA        66.2770   25.4410   -1.7960 C.3    78  GLU78       0.1699
     24  C         64.9090   24.7740   -1.6780 C.2    78  GLU78       0.2592
     25  O         64.7750   23.7990   -0.9500 O.2    78  GLU78      -0.2718
     26  CB        66.5800   26.2900   -0.5370 C.3    78  GLU78       0.0402
     27  CG        68.0040   26.8220   -0.5510 C.3    78  GLU78       0.1161
     28  CD        68.0350   28.2490   -1.0680 C.2    78  GLU78       0.3649
     29  OE1       66.9870   28.7970   -1.4780 O.co2  78  GLU78      -0.2457
     30  OE2       69.1350   28.8390   -1.0470 O.co2  78  GLU78      -0.2457
     31  N         63.9070   25.2710   -2.4120 N.am   79  LEU79      -0.1980
     32  CA        62.5390   24.7390   -2.3320 C.3    79  LEU79       0.1596
     33  C         62.2910   23.5420   -3.2440 C.2    79  LEU79       0.2287
     34  O         61.2090   22.9500   -3.2000 O.2    79  LEU79      -0.2864
     35  CB        61.5290   25.8270   -2.6590 C.3    79  LEU79       0.0297
     36  CG        61.5820   27.1460   -1.8770 C.3    79  LEU79       0.0022
     37  CD1       60.3150   27.9600   -2.1620 C.3    79  LEU79       0.0001
     38  CD2       61.7650   26.9480   -0.3920 C.3    79  LEU79       0.0001
     39  N         64.1180   20.4930   -3.4270 N.3    81  HIS81      -0.1241
     40  CA        64.4230   19.1420   -2.9970 C.3    81  HIS81       0.1621
     41  C         63.3420   18.4540   -2.1860 C.2    81  HIS81       0.2264
     42  O         63.2630   17.2340   -2.2270 O.2    81  HIS81      -0.2867
     43  CB        65.7840   19.0790   -2.2700 C.3    81  HIS81       0.0745
     44  CG        65.7820   19.6810   -0.9040 C.ar   81  HIS81       0.0817
     45  ND1       65.9650   21.0280   -0.6750 N.ar   81  HIS81      -0.2268
     46  CD2       65.7120   19.1010    0.3140 C.ar   81  HIS81       0.1154
     47  CE1       65.9410   21.2550    0.6240 C.ar   81  HIS81       0.1986
     48  NE2       65.8000   20.1000    1.2470 N.ar   81  HIS81      -0.2212
     49  N         60.5130   21.7420    4.0440 N.3   108  THR108     -0.1203
     50  CA        61.2560   22.9930    3.8230 C.3   108  THR108      0.1994
     51  C         60.3490   24.2400    3.9530 C.2   108  THR108      0.2618
     52  O         60.7170   25.1830    4.6180 O.2   108  THR108     -0.2717
     53  CB        61.8860   23.0610    2.4310 C.3   108  THR108      0.1784
     54  OG1       62.7240   21.9340    2.2350 O.3   108  THR108     -0.2211
     55  CG2       62.7070   24.3470    2.2730 C.3   108  THR108      0.0376
     56  N         59.2090   24.2500    3.2590 N.am  109  THR109     -0.1952
     57  CA        58.3660   25.4290    3.2230 C.3   109  THR109      0.1897
     58  C         57.2790   25.4490    4.3030 C.2   109  THR109      0.2313
     59  O         56.8550   26.5260    4.7270 O.2   109  THR109     -0.2863
     60  CB        57.6710   25.5500    1.9010 C.3   109  THR109      0.1794
     61  OG1       56.7740   24.4390    1.7250 O.3   109  THR109     -0.2208
     62  CG2       58.7030   25.6760    0.7160 C.3   109  THR109      0.0378
     63  N         64.0030   18.9790   11.5320 N.3   124  ASP124     -0.1239
     64  CA        65.0210   19.4840   10.6140 C.3   124  ASP124      0.1674
     65  C         65.6550   20.7410   11.1290 C.2   124  ASP124      0.2266
     66  O         66.8360   20.9490   11.0120 O.2   124  ASP124     -0.2867
     67  CB        64.3760   19.8240    9.2780 C.3   124  ASP124      0.1410
     68  CG        65.4130   20.1390    8.1960 C.2   124  ASP124      0.3668
     69  OD1       66.4550   19.4760    8.1300 O.co2 124  ASP124     -0.2456
     70  OD2       65.2260   21.0750    7.4300 O.co2 124  ASP124     -0.2456
     71  N         72.3700   21.6770   14.3940 N.3   130  ARG130     -0.1245
     72  CA        72.0020   22.9920   13.8700 C.3   130  ARG130      0.1563
     73  C         72.4000   24.0810   14.8610 C.2   130  ARG130      0.2260
     74  O         72.1660   23.9350   16.0510 O.2   130  ARG130     -0.2867
     75  CB        70.5090   23.0680   13.6340 C.3   130  ARG130      0.0307
     76  CG        70.0050   22.1720   12.5670 C.3   130  ARG130      0.0489
     77  CD        70.4700   22.5680   11.1750 C.3   130  ARG130      0.2205
     78  NE        69.3580   22.3630   10.2590 N.pl3 130  ARG130     -0.0865
     79  CZ        69.4380   22.0130    8.9790 C.cat 130  ARG130      0.5346
     80  NH1       70.5950   21.7630    8.3850 N.pl3 130  ARG130      0.1354
     81  NH2       68.3090   21.8760    8.3060 N.pl3 130  ARG130      0.1354
     82  N         63.4520   32.0630   10.2270 N.3   157  THR157     -0.1218
     83  CA        63.6440   31.8250    8.7980 C.3   157  THR157      0.1862
     84  C         63.2440   33.0220    7.9440 C.2   157  THR157      0.2287
     85  O         64.0370   33.5250    7.1440 O.2   157  THR157     -0.2866
     86  CB        62.8760   30.5720    8.3060 C.3   157  THR157      0.1770
     87  OG1       63.5100   29.4150    8.8490 O.3   157  THR157     -0.2211
     88  CG2       62.8850   30.4710    6.7660 C.3   157  THR157      0.0375
     89  N         65.5850   35.6040    5.6500 N.3   161  LEU161     -0.1245
     90  CA        65.3630   35.8140    4.2240 C.3   161  LEU161      0.1561
     91  C         65.0990   37.3130    3.8990 C.2   161  LEU161      0.2260
     92  O         65.5690   37.8330    2.8650 O.2   161  LEU161     -0.2867
     93  CB        64.2030   34.9080    3.7270 C.3   161  LEU161      0.0270
     94  CG        64.4050   33.3710    3.7180 C.3   161  LEU161      0.0019
     95  CD1       63.1310   32.6790    3.3120 C.3   161  LEU161      0.0001
     96  CD2       65.5510   32.9760    2.7820 C.3   161  LEU161      0.0001
     97  N         65.8470   38.0890    0.0720 N.3   166  GLN166     -0.1231
     98  CA        65.5490   36.9190   -0.6960 C.3   166  GLN166      0.1683
     99  C         64.0490   36.8040   -0.8310 C.2   166  GLN166      0.2434
    100  O         63.3110   37.2690    0.0260 O.2   166  GLN166     -0.2733
    101  CB        66.0940   35.6870   -0.0130 C.3   166  GLN166      0.0380
    102  CG        67.5940   35.7410    0.2850 C.3   166  GLN166      0.0905
    103  CD        68.4460   35.7100   -0.9650 C.2   166  GLN166      0.2608
    104  OE1       68.3630   34.7720   -1.7630 O.2   166  GLN166     -0.2717
    105  NE2       69.2820   36.7270   -1.1370 N.am  166  GLN166     -0.0878
    106  N         63.5830   36.1860   -1.9190 N.am  167  PRO167     -0.2718
    107  CA        62.1500   35.9980   -2.0810 C.3   167  PRO167      0.1535
    108  C         61.6270   35.0470   -1.0020 C.2   167  PRO167      0.2598
    109  O         62.3760   34.1760   -0.5420 O.2   167  PRO167     -0.2715
    110  CB        62.0320   35.3950   -3.4830 C.3   167  PRO167      0.0310
    111  CG        63.3320   34.7860   -3.7410 C.3   167  PRO167      0.0237
    112  CD        64.3400   35.6410   -3.0540 C.3   167  PRO167      0.0939
    113  N         60.4040   35.2840   -0.5320 N.am  168  ILE168     -0.1964
    114  CA        59.7950   34.4260    0.4820 C.3   168  ILE168      0.1727
    115  C         58.5610   33.7460   -0.1120 C.2   168  ILE168      0.2616
    116  O         57.6760   34.3830   -0.6560 O.2   168  ILE168     -0.2715
    117  CB        59.4970   35.2310    1.7480 C.3   168  ILE168      0.0290
    118  CG1       60.8150   35.7350    2.3370 C.3   168  ILE168      0.0022
    119  CG2       58.6750   34.3910    2.7680 C.3   168  ILE168      0.0023
    120  CD1       60.6490   36.9890    3.1710 C.3   168  ILE168      0.0001
    121  N         58.5480   32.4230   -0.0180 N.am  169  TYR169     -0.1974
    122  CA        57.4800   31.5920   -0.5250 C.3   169  TYR169      0.1639
    123  C         56.2360   31.9420    0.2610 C.2   169  TYR169      0.2290
    124  O         56.2340   31.8610    1.4840 O.2   169  TYR169     -0.2864
    125  CB        57.8300   30.1200   -0.3820 C.3   169  TYR169      0.0560
    126  CG        56.8800   29.1780   -1.0820 C.ar  169  TYR169     -0.0198
    127  CD1       56.6820   29.2510   -2.4700 C.ar  169  TYR169     -0.0009
    128  CD2       56.1790   28.2190   -0.3670 C.ar  169  TYR169     -0.0009
    129  CE1       55.8180   28.3680   -3.1220 C.ar  169  TYR169      0.0417
    130  CE2       55.3230   27.3470   -1.0000 C.ar  169  TYR169      0.0417
    131  CZ        55.1410   27.4180   -2.3740 C.ar  169  TYR169      0.1957
    132  OH        54.2560   26.5380   -2.9590 O.3   169  TYR169     -0.2866
    133  N         54.7330   29.7150    3.0450 N.3   172  THR172     -0.1218
    134  CA        55.5020   29.7060    4.2950 C.3   172  THR172      0.1862
    135  C         54.9640   30.7540    5.2770 C.2   172  THR172      0.2287
    136  O         54.8250   30.4860    6.4860 O.2   172  THR172     -0.2866
    137  CB        56.9730   29.9200    3.9960 C.3   172  THR172      0.1770
    138  OG1       57.4050   28.7950    3.2330 O.3   172  THR172     -0.2211
    139  CG2       57.8260   30.0480    5.3070 C.3   172  THR172      0.0375
@<TRIPOS>BOND
     1    10    11    1
     2    19    17   ar
     3    19    20   ar
     4    21    20    1
     5    17    15   ar
     6    20    18   ar
     7    11    12    1
     8    11    14    1
     9    12    13    2
    10    15    14    1
    11    15    16   ar
    12    18    16   ar
    13   111   110    1
    14   111   112    1
    15   110   107    1
    16    39    40    1
    17     4     3    2
    18    33    34    2
    19    33    32    1
    20   129   127   ar
    21   129   131   ar
    22   112   106    1
    23    22    23    1
    24    40    43    1
    25    40    41    1
    26   132   131    1
    27     3     2    1
    28    35    32    1
    29    35    36    1
    30   127   126   ar
    31    31    32    1
    32    31    24   am
    33   131   130   ar
    34    43    44    1
    35    42    41    2
    36    37    36    1
    37   107   106    1
    38   107   108    1
    39     1     2    1
    40   106    99   am
    41    36    38    1
    42    23    24    1
    43    23    26    1
    44   104   103    2
    45     2     5    1
    46    24    25    2
    47    29    28   ar
    48   105   103   am
    49   126   125    1
    50   126   128   ar
    51    28    30   ar
    52    28    27    1
    53   108   109    2
    54   108   113   am
    55   130   128   ar
    56   103   102    1
    57    44    45   ar
    58    44    46   ar
    59    99    98    1
    60    99   100    2
    61    98   101    1
    62    98    97    1
    63    45    47   ar
    64   116   115    2
    65    27    26    1
    66   113   114    1
    67   122   125    1
    68   122   121    1
    69   122   123    1
    70     5     6    1
    71   115   121   am
    72   115   114    1
    73   101   102    1
    74     6     7    1
    75   123   124    2
    76    46    48   ar
    77   114   117    1
    78     7     8    1
    79    47    48   ar
    80    62    60    1
    81     8     9    1
    82    61    60    1
    83   117   118    1
    84   117   119    1
    85    60    57    1
    86    54    53    1
    87    55    53    1
    88   118   120    1
    89    53    50    1
    90    96    94    1
    91    92    91    2
    92   133   134    1
    93    57    56    1
    94    57    58    1
    95   138   137    1
    96    56    51   am
    97    95    94    1
    98    94    93    1
    99    93    90    1
   100    50    51    1
   101    50    49    1
   102    91    90    1
   103    51    52    2
   104   137   134    1
   105   137   139    1
   106    90    89    1
   107   134   135    1
   108    58    59    2
   109   135   136    2
   110    88    86    1
   111    85    84    2
   112    70    68   ar
   113    84    83    1
   114    69    68   ar
   115    68    67    1
   116    81    79    1
   117    86    83    1
   118    86    87    1
   119    80    79    1
   120    83    82    1
   121    79    78    2
   122    67    64    1
   123    78    77    1
   124    64    65    1
   125    64    63    1
   126    66    65    2
   127    77    76    1
   128    76    75    1
   129    75    72    1
   130    72    71    1
   131    72    73    1
   132    73    74    2
