@<TRIPOS>MOLECULE
tmp/2o08B00.pdb
 193 186 0 0 0
SMALL
GASTEIGER

@<TRIPOS>ATOM
      1  N         49.9130   62.8730   15.6010 N.3    18  ARG18      -0.1245
      2  CA        49.5090   62.3670   14.2940 C.3    18  ARG18       0.1563
      3  C         49.3140   63.4750   13.2370 C.2    18  ARG18       0.2260
      4  O         49.5900   63.2580   12.0400 O.2    18  ARG18      -0.2867
      5  CB        48.2320   61.5720   14.4890 C.3    18  ARG18       0.0307
      6  CG        47.7790   60.7820   13.3130 C.3    18  ARG18       0.0489
      7  CD        48.7520   59.7740   12.8190 C.3    18  ARG18       0.2205
      8  NE        49.5700   59.1310   13.8520 N.pl3  18  ARG18      -0.0865
      9  CZ        50.0680   57.9140   13.7330 C.cat  18  ARG18       0.5346
     10  NH1       49.8190   57.2040   12.6570 N.pl3  18  ARG18       0.1354
     11  NH2       50.8130   57.3910   14.7120 N.pl3  18  ARG18       0.1354
     12  N         52.7060   64.2330   12.1540 N.3    21  HIS21      -0.1241
     13  CA        53.0920   63.1440   11.2500 C.3    21  HIS21       0.1621
     14  C         52.5690   63.4380    9.8690 C.2    21  HIS21       0.2264
     15  O         53.3030   63.3160    8.8940 O.2    21  HIS21      -0.2867
     16  CB        52.5350   61.8030   11.7750 C.3    21  HIS21       0.0745
     17  CG        52.4550   60.7050   10.7620 C.ar   21  HIS21       0.0817
     18  ND1       53.5730   60.0650   10.2780 N.ar   21  HIS21      -0.2268
     19  CD2       51.3900   60.0930   10.1830 C.ar   21  HIS21       0.1154
     20  CE1       53.2030   59.1150    9.4380 C.ar   21  HIS21       0.1986
     21  NE2       51.8850   59.1080    9.3620 N.ar   21  HIS21      -0.2212
     22  N         45.7290   59.3010    7.0090 N.3    50  ASP50      -0.1239
     23  CA        45.3490   58.8490    8.3830 C.3    50  ASP50       0.1674
     24  C         44.0530   59.4120    8.9270 C.2    50  ASP50       0.2266
     25  O         43.8160   59.4060   10.1470 O.2    50  ASP50      -0.2867
     26  CB        46.5150   59.1170    9.3440 C.3    50  ASP50       0.1410
     27  CG        47.6070   58.0560    9.2320 C.2    50  ASP50       0.3668
     28  OD1       47.2940   56.9710    8.6920 O.co2  50  ASP50      -0.2456
     29  OD2       48.7520   58.2860    9.7170 O.co2  50  ASP50      -0.2456
     30  N         42.4680   57.0140   11.1690 N.3    53  LYS53      -0.1245
     31  CA        43.3290   56.3480   12.1450 C.3    53  LYS53       0.1561
     32  C         42.6620   56.0980   13.5090 C.2    53  LYS53       0.2260
     33  O         42.9010   55.0460   14.1460 O.2    53  LYS53      -0.2867
     34  CB        44.6190   57.1510   12.3140 C.3    53  LYS53       0.0271
     35  CG        45.6530   56.5690   13.2430 C.3    53  LYS53       0.0035
     36  CD        46.4030   55.4600   12.6330 C.3    53  LYS53       0.0206
     37  CE        47.4130   54.8950   13.6140 C.3    53  LYS53       0.1093
     38  NZ        48.0840   53.7320   12.9950 N.3    53  LYS53      -0.1314
     39  N         43.9440   40.0830    9.9730 N.3    75  TYR75      -0.1227
     40  CA        45.3560   40.4020   10.0810 C.3    75  TYR75       0.1736
     41  C         45.7430   41.6490   10.8220 C.2    75  TYR75       0.2596
     42  O         46.7910   42.1800   10.5430 O.2    75  TYR75      -0.2718
     43  CB        45.9780   40.4530    8.6910 C.3    75  TYR75       0.0548
     44  CG        45.8860   39.1650    7.9520 C.ar   75  TYR75      -0.0200
     45  CD1       46.7920   38.1430    8.1710 C.ar   75  TYR75      -0.0009
     46  CD2       44.8680   38.9470    7.0440 C.ar   75  TYR75      -0.0009
     47  CE1       46.7030   36.9360    7.4680 C.ar   75  TYR75       0.0417
     48  CE2       44.7570   37.7490    6.3560 C.ar   75  TYR75       0.0417
     49  CZ        45.6870   36.7520    6.5660 C.ar   75  TYR75       0.1957
     50  OH        45.5850   35.5780    5.8590 O.3    75  TYR75      -0.2866
     51  N         44.9360   42.1260   11.7490 N.am   76  GLY76      -0.1957
     52  CA        45.3400   43.2410   12.6000 C.3    76  GLY76       0.1869
     53  C         44.4630   44.4750   12.4690 C.2    76  GLY76       0.2309
     54  O         44.1070   44.9100   11.3510 O.2    76  GLY76      -0.2863
     55  N         45.2290   47.5010   12.8050 N.3    78  GLU78      -0.1231
     56  CA        45.8450   48.6440   12.1070 C.3    78  GLU78       0.1699
     57  C         45.5730   48.6690   10.6000 C.2    78  GLU78       0.2592
     58  O         45.8010   49.6920    9.9500 O.2    78  GLU78      -0.2718
     59  CB        47.3390   48.7430   12.3960 C.3    78  GLU78       0.0402
     60  CG        47.6800   49.2420   13.8560 C.3    78  GLU78       0.1161
     61  CD        46.9450   50.5290   14.2630 C.2    78  GLU78       0.3649
     62  OE1       46.7950   51.4400   13.4120 O.co2  78  GLU78      -0.2457
     63  OE2       46.4880   50.6150   15.4320 O.co2  78  GLU78      -0.2457
     64  N         45.0640   47.5600   10.0580 N.am   79  LEU79      -0.1980
     65  CA        44.7760   47.4610    8.6470 C.3    79  LEU79       0.1596
     66  C         43.4420   48.0720    8.2640 C.2    79  LEU79       0.2287
     67  O         43.1040   48.1650    7.0720 O.2    79  LEU79      -0.2864
     68  CB        44.8230   46.0000    8.2180 C.3    79  LEU79       0.0297
     69  CG        46.1430   45.2370    8.4350 C.3    79  LEU79       0.0022
     70  CD1       46.1940   44.0600    7.4480 C.3    79  LEU79       0.0001
     71  CD2       47.2790   46.1530    8.2130 C.3    79  LEU79       0.0001
     72  N         42.1850   51.2900    8.9710 N.3    81  HIS81      -0.1241
     73  CA        42.0820   52.7060    8.7190 C.3    81  HIS81       0.1621
     74  C         42.3560   53.1690    7.3120 C.2    81  HIS81       0.2264
     75  O         41.7050   54.1190    6.8740 O.2    81  HIS81      -0.2867
     76  CB        42.8830   53.5050    9.7570 C.3    81  HIS81       0.0745
     77  CG        44.3800   53.4800    9.5750 C.ar   81  HIS81       0.0817
     78  ND1       45.1800   52.4950   10.1190 N.ar   81  HIS81      -0.2268
     79  CD2       45.2210   54.3930    9.0320 C.ar   81  HIS81       0.1154
     80  CE1       46.4500   52.7610    9.8320 C.ar   81  HIS81       0.1986
     81  NE2       46.5040   53.9050    9.1710 N.ar   81  HIS81      -0.2212
     82  N         48.0640   52.6280    1.6790 N.3   107  HIS107     -0.1226
     83  CA        49.2520   53.2130    2.3440 C.3   107  HIS107      0.1752
     84  C         49.7930   52.3690    3.4950 C.2   107  HIS107      0.2597
     85  O         50.9600   52.5450    3.8750 O.2   107  HIS107     -0.2718
     86  CB        48.9910   54.6380    2.8470 C.3   107  HIS107      0.0759
     87  CG        48.3260   54.7160    4.1850 C.ar  107  HIS107      0.0818
     88  ND1       46.9710   54.9330    4.3290 N.ar  107  HIS107     -0.2268
     89  CD2       48.8410   54.6950    5.4350 C.ar  107  HIS107      0.1154
     90  CE1       46.6740   54.9910    5.6160 C.ar  107  HIS107      0.1986
     91  NE2       47.7890   54.8510    6.3090 N.ar  107  HIS107     -0.2212
     92  N         48.9350   51.5030    4.0670 N.am  108  THR108     -0.1939
     93  CA        49.3270   50.6550    5.2060 C.3   108  THR108      0.2028
     94  C         49.9310   49.3230    4.6840 C.2   108  THR108      0.2642
     95  O         51.0570   49.0400    5.0120 O.2   108  THR108     -0.2714
     96  CB        48.1760   50.4010    6.2320 C.3   108  THR108      0.1808
     97  OG1       47.7150   51.6630    6.7380 O.3   108  THR108     -0.2208
     98  CG2       48.6670   49.5070    7.4350 C.3   108  THR108      0.0379
     99  N         49.2250   48.5770    3.8310 N.am  109  THR109     -0.1950
    100  CA        49.6930   47.2560    3.4120 C.3   109  THR109      0.1897
    101  C         50.5480   47.2530    2.1710 C.2   109  THR109      0.2313
    102  O         51.3420   46.3430    2.0000 O.2   109  THR109     -0.2863
    103  CB        48.5430   46.3120    3.1180 C.3   109  THR109      0.1794
    104  OG1       47.7000   46.8780    2.0810 O.3   109  THR109     -0.2208
    105  CG2       47.7590   46.0610    4.3690 C.3   109  THR109      0.0378
    106  N         55.0150   57.9480    4.1890 N.3   124  ASP124     -0.1239
    107  CA        54.4840   57.5650    5.5110 C.3   124  ASP124      0.1674
    108  C         55.5810   56.9800    6.3690 C.2   124  ASP124      0.2266
    109  O         55.6650   57.2350    7.5510 O.2   124  ASP124     -0.2867
    110  CB        53.3730   56.5160    5.3460 C.3   124  ASP124      0.1410
    111  CG        52.5970   56.2570    6.6490 C.2   124  ASP124      0.3668
    112  OD1       52.3870   57.1980    7.4140 O.co2 124  ASP124     -0.2456
    113  OD2       52.1810   55.1170    6.9090 O.co2 124  ASP124     -0.2456
    114  N         59.5920   60.3300   12.0630 N.3   130  ARG130     -0.1245
    115  CA        59.7010   58.9080   12.3710 C.3   130  ARG130      0.1563
    116  C         61.0570   58.6000   12.9760 C.2   130  ARG130      0.2260
    117  O         62.0660   59.1680   12.5730 O.2   130  ARG130     -0.2867
    118  CB        59.5160   58.0540   11.1280 C.3   130  ARG130      0.0307
    119  CG        58.1570   58.1230   10.5260 C.3   130  ARG130      0.0489
    120  CD        57.0950   57.4650   11.3750 C.3   130  ARG130      0.2205
    121  NE        56.0920   56.8460   10.5050 N.pl3 130  ARG130     -0.0865
    122  CZ        54.8350   56.5410   10.8340 C.cat 130  ARG130      0.5346
    123  NH1       54.3400   56.7990   12.0300 N.pl3 130  ARG130      0.1354
    124  NH2       54.0540   55.9810    9.9220 N.pl3 130  ARG130      0.1354
    125  N         59.2890   46.5240    8.4790 N.3   157  THR157     -0.1218
    126  CA        57.9200   46.3120    8.9500 C.3   157  THR157      0.1862
    127  C         57.6200   44.8340    9.2020 C.2   157  THR157      0.2287
    128  O         57.1950   44.4470   10.2910 O.2   157  THR157     -0.2866
    129  CB        56.9230   46.9250    7.9270 C.3   157  THR157      0.1770
    130  OG1       57.1630   48.3360    7.8390 O.3   157  THR157     -0.2211
    131  CG2       55.4630   46.6450    8.2910 C.3   157  THR157      0.0375
    132  N         59.5140   43.4620   12.1280 N.3   160  PHE160     -0.1227
    133  CA        58.9230   43.9190   13.3780 C.3   160  PHE160      0.1736
    134  C         57.7050   43.0920   13.7420 C.2   160  PHE160      0.2595
    135  O         57.6050   42.6120   14.8740 O.2   160  PHE160     -0.2718
    136  CB        58.5900   45.4050   13.2400 C.3   160  PHE160      0.0547
    137  CG        57.9110   45.9700   14.4290 C.ar  160  PHE160     -0.0202
    138  CD1       58.6540   46.4700   15.4770 C.ar  160  PHE160     -0.0042
    139  CD2       56.5120   45.9480   14.5300 C.ar  160  PHE160     -0.0042
    140  CE1       58.0060   46.9960   16.5980 C.ar  160  PHE160     -0.0003
    141  CE2       55.8670   46.4470   15.6620 C.ar  160  PHE160     -0.0003
    142  CZ        56.6090   46.9710   16.6850 C.ar  160  PHE160     -0.0000
    143  N         56.7840   42.8960   12.7830 N.am  161  LEU161     -0.1980
    144  CA        55.5750   42.0710   13.0260 C.3   161  LEU161      0.1596
    145  C         55.9390   40.6380   13.4710 C.2   161  LEU161      0.2287
    146  O         55.3860   40.1120   14.4350 O.2   161  LEU161     -0.2864
    147  CB        54.6550   42.0700   11.7730 C.3   161  LEU161      0.0297
    148  CG        54.0180   43.4260   11.3830 C.3   161  LEU161      0.0022
    149  CD1       53.4820   43.4860    9.9020 C.3   161  LEU161      0.0001
    150  CD2       52.8950   43.7840   12.4490 C.3   161  LEU161      0.0001
    151  N         52.9150   38.9340   15.4590 N.3   166  GLN166     -0.1231
    152  CA        51.6510   39.4770   14.9830 C.3   166  GLN166      0.1683
    153  C         51.4420   38.9130   13.5520 C.2   166  GLN166      0.2434
    154  O         52.4080   38.5360   12.8900 O.2   166  GLN166     -0.2733
    155  CB        51.7060   41.0140   15.0360 C.3   166  GLN166      0.0380
    156  CG        51.6890   41.5710   16.5000 C.3   166  GLN166      0.0905
    157  CD        51.9760   43.0930   16.6100 C.2   166  GLN166      0.2608
    158  OE1       52.2150   43.7720   15.6050 O.2   166  GLN166     -0.2717
    159  NE2       51.9430   43.6250   17.8410 N.am  166  GLN166     -0.0878
    160  N         50.1910   38.7810   13.1110 N.am  167  PRO167     -0.2718
    161  CA        49.9590   38.2870   11.7730 C.3   167  PRO167      0.1535
    162  C         50.4250   39.2840   10.7330 C.2   167  PRO167      0.2598
    163  O         50.5840   40.4480   11.0290 O.2   167  PRO167     -0.2715
    164  CB        48.4390   38.0840   11.7300 C.3   167  PRO167      0.0310
    165  CG        47.9300   39.0740   12.7000 C.3   167  PRO167      0.0237
    166  CD        48.9190   39.0460   13.8070 C.3   167  PRO167      0.0939
    167  N         50.7460   38.7940    9.5410 N.am  168  ILE168     -0.1964
    168  CA        51.2670   39.6180    8.4660 C.3   168  ILE168      0.1727
    169  C         50.3500   39.4350    7.2530 C.2   168  ILE168      0.2616
    170  O         50.1970   38.3380    6.7160 O.2   168  ILE168     -0.2715
    171  CB        52.7260   39.2080    8.1650 C.3   168  ILE168      0.0290
    172  CG1       53.5900   39.4610    9.4240 C.3   168  ILE168      0.0022
    173  CG2       53.2580   39.9840    6.9540 C.3   168  ILE168      0.0023
    174  CD1       54.8710   38.6860    9.4560 C.3   168  ILE168      0.0001
    175  N         49.7410   40.5240    6.8090 N.am  169  TYR169     -0.1974
    176  CA        48.8310   40.5080    5.6790 C.3   169  TYR169      0.1639
    177  C         49.5590   39.9380    4.4650 C.2   169  TYR169      0.2290
    178  O         50.6350   40.4170    4.1250 O.2   169  TYR169     -0.2864
    179  CB        48.3820   41.9180    5.3530 C.3   169  TYR169      0.0560
    180  CG        47.2580   41.9930    4.3540 C.ar  169  TYR169     -0.0198
    181  CD1       46.0430   41.3510    4.6000 C.ar  169  TYR169     -0.0009
    182  CD2       47.3730   42.7640    3.2200 C.ar  169  TYR169     -0.0009
    183  CE1       45.0040   41.4520    3.7220 C.ar  169  TYR169      0.0417
    184  CE2       46.3170   42.8790    2.3300 C.ar  169  TYR169      0.0417
    185  CZ        45.1480   42.2200    2.5810 C.ar  169  TYR169      0.1957
    186  OH        44.1170   42.3240    1.6930 O.3   169  TYR169     -0.2866
    187  N         51.0450   42.1660    1.6730 N.3   172  THR172     -0.1218
    188  CA        52.2490   42.9210    2.0070 C.3   172  THR172      0.1862
    189  C         53.5120   42.1330    1.6270 C.2   172  THR172      0.2287
    190  O         54.4680   42.6970    1.1270 O.2   172  THR172     -0.2866
    191  CB        52.2790   43.3090    3.4690 C.3   172  THR172      0.1770
    192  OG1       51.1610   44.1670    3.7200 O.3   172  THR172     -0.2211
    193  CG2       53.6140   44.0470    3.8270 C.3   172  THR172      0.0375
@<TRIPOS>BOND
     1   190   189    2
     2   189   188    1
     3   187   188    1
     4    82    83    1
     5   186   185    1
     6   102   101    2
     7   188   191    1
     8   104   103    1
     9   101   100    1
    10   184   185   ar
    11   184   182   ar
    12    83    86    1
    13    83    84    1
    14   185   183   ar
    15    86    87    1
    16   103   100    1
    17   103   105    1
    18   182   180   ar
    19   100    99    1
    20   191   192    1
    21   191   193    1
    22    84    85    2
    23    84    92   am
    24   183   181   ar
    25    99    94   am
    26    92    93    1
    27   178   177    2
    28    87    88   ar
    29    87    89   ar
    30   106   107    1
    31    88    90   ar
    32   180   181   ar
    33   180   179    1
    34   177   176    1
    35    94    95    2
    36    94    93    1
    37    93    96    1
    38   110   107    1
    39   110   111    1
    40   179   176    1
    41    89    91   ar
    42   107   108    1
    43    90    91   ar
    44   176   175    1
    45    50    49    1
    46    96    97    1
    47    96    98    1
    48    48    49   ar
    49    48    46   ar
    50   108   109    2
    51    49    47   ar
    52   111   113   ar
    53   111   112   ar
    54   170   169    2
    55   175   169   am
    56    75    74    2
    57   173   171    1
    58    22    23    1
    59    46    44   ar
    60    67    66    2
    61   169   168    1
    62    74    73    1
    63    70    69    1
    64    47    45   ar
    65   130   129    1
    66   129   131    1
    67   129   126    1
    68    44    45   ar
    69    44    43    1
    70   171   168    1
    71   171   172    1
    72    71    69    1
    73    68    69    1
    74    68    65    1
    75    66    65    1
    76    23    24    1
    77    23    26    1
    78   168   167    1
    79   125   126    1
    80    65    64    1
    81    43    40    1
    82    28    27   ar
    83    73    72    1
    84    73    76    1
    85    15    14    2
    86    24    25    2
    87   126   127    1
    88    79    81   ar
    89    79    77   ar
    90    81    80   ar
    91   127   128    2
    92    27    26    1
    93    27    29   ar
    94    21    20   ar
    95    21    19   ar
    96   172   174    1
    97    20    18   ar
    98   167   162   am
    99    77    76    1
   100    77    78   ar
   101    80    78   ar
   102    14    13    1
   103   149   148    1
   104   124   122    1
   105    58    57    2
   106    39    40    1
   107    64    57   am
   108    40    41    1
   109    19    17   ar
   110    18    17   ar
   111   121   122    2
   112   121   120    1
   113   119   118    1
   114   119   120    1
   115    42    41    2
   116    57    56    1
   117   162   163    2
   118   162   161    1
   119    17    16    1
   120    41    51   am
   121   122   123    1
   122   118   115    1
   123    30    31    1
   124    13    16    1
   125    13    12    1
   126    54    53    2
   127   148   147    1
   128   148   150    1
   129   164   161    1
   130   164   165    1
   131    51    52    1
   132   161   160    1
   133   147   144    1
   134     4     3    2
   135   114   115    1
   136    56    59    1
   137    56    55    1
   138   132   133    1
   139    31    34    1
   140    31    32    1
   141    34    35    1
   142   115   116    1
   143    59    60    1
   144    53    52    1
   145   117   116    2
   146    36    35    1
   147    36    37    1
   148    10     9    1
   149   165   166    1
   150   143   144    1
   151   143   134   am
   152     7     6    1
   153     7     8    1
   154   154   153    2
   155    38    37    1
   156   144   145    1
   157   160   153   am
   158   160   166    1
   159     3     2    1
   160   136   133    1
   161   136   137    1
   162     6     5    1
   163   133   134    1
   164    62    61   ar
   165   145   146    2
   166    32    33    2
   167   153   152    1
   168     9     8    2
   169     9    11    1
   170   134   135    2
   171    60    61    1
   172    61    63   ar
   173     2     5    1
   174     2     1    1
   175   137   139   ar
   176   137   138   ar
   177   139   141   ar
   178   152   155    1
   179   152   151    1
   180   155   156    1
   181   138   140   ar
   182   158   157    2
   183   141   142   ar
   184   156   157    1
   185   140   142   ar
   186   157   159   am
