@<TRIPOS>MOLECULE
tmp/2o0eA01.pdb
 128 119 0 0 0
SMALL
GASTEIGER

@<TRIPOS>ATOM
      1  N         11.3480   28.2140   19.6840 N.3    23  LYS23      -0.1245
      2  CA        10.8670   27.7860   18.3690 C.3    23  LYS23       0.1561
      3  C         10.3860   28.9260   17.4920 C.2    23  LYS23       0.2260
      4  O         10.6400   29.0370   16.2950 O.2    23  LYS23      -0.2867
      5  CB         9.7100   26.7770   18.5950 C.3    23  LYS23       0.0271
      6  CG         9.0240   26.4330   17.2680 C.3    23  LYS23       0.0035
      7  CD         7.6480   27.0880   17.1640 C.3    23  LYS23       0.0206
      8  CE         6.6320   26.2760   17.9700 C.3    23  LYS23       0.1093
      9  NZ         5.3860   27.0150   18.3070 N.3    23  LYS23      -0.1314
     10  N          9.6250   20.9910   14.8690 N.3    54  ASP54      -0.1239
     11  CA         9.1000   22.1690   14.1800 C.3    54  ASP54       0.1674
     12  C         10.1760   22.9310   13.4250 C.2    54  ASP54       0.2266
     13  O          9.8510   23.4710   12.3630 O.2    54  ASP54      -0.2867
     14  CB         8.4360   23.1420   15.1720 C.3    54  ASP54       0.1410
     15  CG         6.9730   22.8010   15.4000 C.2    54  ASP54       0.3668
     16  OD1        6.5290   21.7620   14.8610 O.co2  54  ASP54      -0.2456
     17  OD2        6.2640   23.5350   16.1220 O.co2  54  ASP54      -0.2456
     18  N          2.4390   24.8070   12.8760 N.3    96  GLY96      -0.1210
     19  CA         1.6770   25.9250   12.3280 C.3    96  GLY96       0.1956
     20  C          2.5770   26.9530   11.6530 C.2    96  GLY96       0.2612
     21  O          2.1620   27.5030   10.6410 O.2    96  GLY96      -0.2717
     22  N          3.7680   27.2000   12.2110 N.am   97  THR97      -0.1952
     23  CA         4.6700   28.2190   11.6690 C.3    97  THR97       0.1897
     24  C          5.0680   27.8390   10.2550 C.2    97  THR97       0.2313
     25  O          5.2000   28.7120    9.4050 O.2    97  THR97      -0.2863
     26  CB         5.9220   28.4740   12.5190 C.3    97  THR97       0.1794
     27  OG1        6.6510   27.2460   12.7720 O.3    97  THR97      -0.2208
     28  CG2        5.5590   29.0370   13.8950 C.3    97  THR97       0.0378
     29  N          1.7650   28.2640    8.0480 N.3   100  ARG100     -0.1301
     30  CA         1.3740   29.6570    7.8830 C.3   100  ARG100      0.1248
     31  C          2.4940   30.5600    7.3620 C.3   100  ARG100      0.2009
     32  O          2.1130   31.5450    6.7180 O.3   100  ARG100     -0.2188
     33  CB         0.8300   30.2330    9.1980 C.3   100  ARG100      0.0254
     34  CG        -0.6440   29.9040    9.4700 C.3   100  ARG100      0.0485
     35  CD        -0.7440   28.5300   10.0800 C.3   100  ARG100      0.2205
     36  NE        -2.0250   28.1310   10.6340 N.pl3 100  ARG100     -0.0865
     37  CZ        -2.2200   28.0320   11.9440 C.cat 100  ARG100      0.5346
     38  NH1       -1.2610   28.3050   12.8340 N.pl3 100  ARG100      0.1354
     39  NH2       -3.4100   27.6480   12.4150 N.pl3 100  ARG100      0.1354
     40  N         -6.5090   22.0910   11.5020 N.3   124  ARG124     -0.1245
     41  CA        -6.1280   23.4110   12.0420 C.3   124  ARG124      0.1563
     42  C         -6.4250   24.5150   11.0500 C.2   124  ARG124      0.2260
     43  O         -6.4000   24.3660    9.8200 O.2   124  ARG124     -0.2867
     44  CB        -4.6540   23.3940   12.4660 C.3   124  ARG124      0.0307
     45  CG        -4.3980   22.3620   13.5400 C.3   124  ARG124      0.0489
     46  CD        -3.0050   22.4660   14.1240 C.3   124  ARG124      0.2205
     47  NE        -2.8360   23.7680   14.7870 N.pl3 124  ARG124     -0.0865
     48  CZ        -1.6600   24.2610   15.1650 C.cat 124  ARG124      0.5346
     49  NH1       -0.5520   23.5580   14.9520 N.pl3 124  ARG124      0.1354
     50  NH2       -1.6120   25.4530   15.7580 N.pl3 124  ARG124      0.1354
     51  N         -0.7870   33.7180   13.5610 N.3   169  GLN169     -0.1245
     52  CA         0.2030   33.3660   12.5470 C.3   169  GLN169      0.1566
     53  C         -0.2520   33.7240   11.1520 C.2   169  GLN169      0.2260
     54  O          0.5410   33.7750   10.1890 O.2   169  GLN169     -0.2867
     55  CB         0.5400   31.8730   12.6120 C.3   169  GLN169      0.0367
     56  CG         1.0890   31.4440   13.9630 C.3   169  GLN169      0.0905
     57  CD         1.5120   29.9810   13.9660 C.2   169  GLN169      0.2608
     58  OE1        1.4680   29.3370   12.9140 O.2   169  GLN169     -0.2717
     59  NE2        1.9220   29.4730   15.1100 N.am  169  GLN169     -0.0878
     60  N         -0.2900   29.6750   24.5420 N.3   311  GLU311     -0.1245
     61  CA         0.5020   28.4330   24.5700 C.3   311  GLU311      0.1567
     62  C          0.9740   28.0870   25.9710 C.2   311  GLU311      0.2260
     63  O          1.5010   26.9690   26.1260 O.2   311  GLU311     -0.2867
     64  CB         1.7150   28.4960   23.6140 C.3   311  GLU311      0.0388
     65  CG         2.6820   29.6150   24.0020 C.3   311  GLU311      0.1160
     66  CD         3.8330   29.7960   23.0270 C.2   311  GLU311      0.3649
     67  OE1        3.8060   29.2470   21.9100 O.co2 311  GLU311     -0.2457
     68  OE2        4.7950   30.5050   23.3620 O.co2 311  GLU311     -0.2457
     69  N         -5.5280   24.6050   18.1400 N.3   340  HIS340     -0.1226
     70  CA        -4.0990   24.3830   18.3090 C.3   340  HIS340      0.1752
     71  C         -3.6920   22.9750   17.8860 C.2   340  HIS340      0.2595
     72  O         -4.4990   22.3180   17.2150 O.2   340  HIS340     -0.2718
     73  CB        -3.7530   24.6850   19.7730 C.3   340  HIS340      0.0759
     74  CG        -3.3280   26.1250   19.9350 C.ar  340  HIS340      0.0818
     75  ND1       -2.6700   26.6180   21.0340 N.ar  340  HIS340     -0.2268
     76  CD2       -3.4980   27.1800   19.1060 C.ar  340  HIS340      0.1154
     77  CE1       -2.4330   27.9040   20.8800 C.ar  340  HIS340      0.1986
     78  NE2       -2.9280   28.2820   19.7030 N.ar  340  HIS340     -0.2212
     79  N         -2.4970   22.5220   18.2270 N.am  341  GLU341     -0.1979
     80  CA        -1.9300   21.2130   17.9120 C.3   341  GLU341      0.1602
     81  C         -3.0100   20.1200   18.0050 C.2   341  GLU341      0.2287
     82  O         -3.2100   19.2850   17.1450 O.2   341  GLU341     -0.2864
     83  CB        -0.7650   20.8830   18.8590 C.3   341  GLU341      0.0415
     84  CG         0.5630   21.5280   18.4680 C.3   341  GLU341      0.1163
     85  CD         0.7660   22.9370   18.9890 C.2   341  GLU341      0.3649
     86  OE1       -0.2250   23.6750   19.2170 O.co2 341  GLU341     -0.2457
     87  OE2        1.9370   23.3430   19.1820 O.co2 341  GLU341     -0.2457
     88  N         -6.8730   22.0480   22.6450 N.3   344  ARG344     -0.1245
     89  CA        -6.2850   21.9740   23.9780 C.3   344  ARG344      0.1563
     90  C         -7.2970   22.1520   25.0890 C.2   344  ARG344      0.2260
     91  O         -7.0980   21.6350   26.1930 O.2   344  ARG344     -0.2867
     92  CB        -5.1380   23.0150   24.1110 C.3   344  ARG344      0.0307
     93  CG        -3.9040   22.4920   23.3470 C.3   344  ARG344      0.0489
     94  CD        -2.7990   23.5390   23.3170 C.3   344  ARG344      0.2205
     95  NE        -1.5150   22.9850   22.8910 N.pl3 344  ARG344     -0.0865
     96  CZ        -0.4550   23.7270   22.5710 C.cat 344  ARG344      0.5346
     97  NH1       -0.5590   25.0590   22.6290 N.pl3 344  ARG344      0.1354
     98  NH2        0.6720   23.1240   22.2010 N.pl3 344  ARG344      0.1354
     99  N          3.2760   18.3120   22.2380 N.3   384  HIS384     -0.1226
    100  CA         4.3690   18.5600   23.1760 C.3   384  HIS384      0.1752
    101  C          3.9730   19.2010   24.4970 C.2   384  HIS384      0.2595
    102  O          4.4840   18.8610   25.5720 O.2   384  HIS384     -0.2718
    103  CB         5.4070   19.4810   22.5240 C.3   384  HIS384      0.0759
    104  CG         4.9240   20.7620   21.9430 C.ar  384  HIS384      0.0818
    105  ND1        5.7250   21.9010   21.9620 N.ar  384  HIS384     -0.2268
    106  CD2        3.7730   21.1210   21.3170 C.ar  384  HIS384      0.1154
    107  CE1        5.0630   22.8930   21.3750 C.ar  384  HIS384      0.1986
    108  NE2        3.8840   22.4520   20.9710 N.ar  384  HIS384     -0.2212
    109  N          3.0430   20.1600   24.4650 N.am  385  ARG385     -0.1980
    110  CA         2.6470   20.8340   25.7010 C.3   385  ARG385      0.1597
    111  C          1.6800   20.0300   26.5500 C.2   385  ARG385      0.2287
    112  O          1.6670   20.1590   27.7800 O.2   385  ARG385     -0.2864
    113  CB         2.0400   22.2030   25.3520 C.3   385  ARG385      0.0334
    114  CG         2.9990   22.9880   24.4490 C.3   385  ARG385      0.0492
    115  CD         3.0230   24.4590   24.8800 C.3   385  ARG385      0.2205
    116  NE         3.7670   25.2250   23.8720 N.pl3 385  ARG385     -0.0865
    117  CZ         5.0950   25.2760   23.8510 C.cat 385  ARG385      0.5346
    118  NH1        5.7950   24.6250   24.7700 N.pl3 385  ARG385      0.1354
    119  NH2        5.6910   25.9850   22.9040 N.pl3 385  ARG385      0.1354
    120  N          8.4290   18.0960   19.2780 N.3   410  LYS410     -0.1245
    121  CA         7.9670   19.2530   18.5030 C.3   410  LYS410      0.1561
    122  C          8.8440   20.4830   18.7490 C.2   410  LYS410      0.2260
    123  O          9.2210   21.1380   17.7780 O.2   410  LYS410     -0.2867
    124  CB         6.4980   19.5840   18.8310 C.3   410  LYS410      0.0271
    125  CG         5.8140   20.4000   17.7330 C.3   410  LYS410      0.0035
    126  CD         4.3000   20.4620   17.9530 C.3   410  LYS410      0.0206
    127  CE         3.6290   21.1370   16.7580 C.3   410  LYS410      0.1093
    128  NZ         3.7280   22.6180   16.8590 N.3   410  LYS410     -0.1314
@<TRIPOS>BOND
     1    32    31    1
     2    31    30    1
     3    30    29    1
     4    30    33    1
     5    33    34    1
     6    25    24    2
     7    34    35    1
     8    43    42    2
     9    35    36    1
    10    54    53    2
    11    24    23    1
    12    36    37    2
    13    21    20    2
    14    42    41    1
    15    53    52    1
    16    40    41    1
    17    20    22   am
    18    20    19    1
    19    23    22    1
    20    23    26    1
    21    37    39    1
    22    37    38    1
    23    41    44    1
    24    19    18    1
    25    13    12    2
    26    44    45    1
    27    26    27    1
    28    26    28    1
    29    52    55    1
    30    52    51    1
    31    55    56    1
    32    58    57    2
    33    12    11    1
    34    45    46    1
    35    56    57    1
    36    57    59   am
    37    46    47    1
    38    11    10    1
    39    11    14    1
    40    47    48    2
    41    16    15   ar
    42    49    48    1
    43    48    50    1
    44    14    15    1
    45    15    17   ar
    46     4     3    2
    47   127   128    1
    48   127   126    1
    49    82    81    2
    50     7     6    1
    51     7     8    1
    52    72    71    2
    53     6     5    1
    54     3     2    1
    55   125   126    1
    56   125   124    1
    57   123   122    2
    58    71    79   am
    59    71    70    1
    60    80    81    1
    61    80    79    1
    62    80    83    1
    63     8     9    1
    64    69    70    1
    65    70    73    1
    66     2     5    1
    67     2     1    1
    68    84    83    1
    69    84    85    1
    70   121   122    1
    71   121   124    1
    72   121   120    1
    73    85    87   ar
    74    85    86   ar
    75    76    78   ar
    76    76    74   ar
    77    78    77   ar
    78    73    74    1
    79    74    75   ar
    80    77    75   ar
    81   108   106   ar
    82   108   107   ar
    83   106   104   ar
    84   107   105   ar
    85    67    66   ar
    86   104   105   ar
    87   104   103    1
    88    98    96    1
    89    99   100    1
    90   103   100    1
    91    96    97    1
    92    96    95    2
    93    88    89    1
    94    95    94    1
    95   119   117    1
    96    66    68   ar
    97    66    65    1
    98   100   101    1
    99    94    93    1
   100    93    92    1
   101    64    65    1
   102    64    61    1
   103   117   116    2
   104   117   118    1
   105   116   115    1
   106    89    92    1
   107    89    90    1
   108   114   115    1
   109   114   113    1
   110   109   101   am
   111   109   110    1
   112   101   102    2
   113    60    61    1
   114    61    62    1
   115    90    91    2
   116   113   110    1
   117   110   111    1
   118    62    63    2
   119   111   112    2
