@<TRIPOS>MOLECULE
tmp/2o0eA00.pdb
 185 176 0 0 0
SMALL
GASTEIGER

@<TRIPOS>ATOM
      1  N         11.3480   28.2140   19.6840 N.3    23  LYS23      -0.1231
      2  CA        10.8670   27.7860   18.3690 C.3    23  LYS23       0.1693
      3  C         10.3860   28.9260   17.4920 C.2    23  LYS23       0.2592
      4  O         10.6400   29.0370   16.2950 O.2    23  LYS23      -0.2718
      5  CB         9.7100   26.7770   18.5950 C.3    23  LYS23       0.0285
      6  CG         9.0240   26.4330   17.2680 C.3    23  LYS23       0.0035
      7  CD         7.6480   27.0880   17.1640 C.3    23  LYS23       0.0206
      8  CE         6.6320   26.2760   17.9700 C.3    23  LYS23       0.1093
      9  NZ         5.3860   27.0150   18.3070 N.3    23  LYS23      -0.1314
     10  N          9.6010   29.8140   18.1200 N.am   24  SER24      -0.1952
     11  CA         9.0310   30.9390   17.3890 C.3    24  SER24       0.1924
     12  C         10.0970   31.8540   16.8030 C.2    24  SER24       0.2314
     13  O         10.0150   32.3230   15.6790 O.2    24  SER24      -0.2863
     14  CB         8.1630   31.7720   18.3460 C.3    24  SER24       0.2116
     15  OG         6.9830   31.0720   18.7480 O.3    24  SER24      -0.2180
     16  N         11.1730   32.2380   12.7000 N.3    28  ARG28      -0.1245
     17  CA        11.1510   33.5590   12.0720 C.3    28  ARG28       0.1563
     18  C         12.5190   33.8710   11.4640 C.2    28  ARG28       0.2260
     19  O         12.6250   34.3500   10.3430 O.2    28  ARG28      -0.2867
     20  CB        10.8220   34.6570   13.0880 C.3    28  ARG28       0.0307
     21  CG         9.3260   34.8700   13.3180 C.3    28  ARG28       0.0489
     22  CD         9.0490   35.6210   14.6120 C.3    28  ARG28       0.2205
     23  NE         7.6160   35.6960   14.8860 N.pl3  28  ARG28      -0.0865
     24  CZ         6.7830   34.7280   15.2430 C.cat  28  ARG28       0.5346
     25  NH1        7.1710   33.4640   15.4230 N.pl3  28  ARG28       0.1354
     26  NH2        5.4810   35.0050   15.4390 N.pl3  28  ARG28       0.1354
     27  N          3.7680   27.2000   12.2110 N.3    97  THR97      -0.1218
     28  CA         4.6700   28.2190   11.6690 C.3    97  THR97       0.1862
     29  C          5.0680   27.8390   10.2550 C.2    97  THR97       0.2287
     30  O          5.2000   28.7120    9.4050 O.2    97  THR97      -0.2866
     31  CB         5.9220   28.4740   12.5190 C.3    97  THR97       0.1770
     32  OG1        6.6510   27.2460   12.7720 O.3    97  THR97      -0.2211
     33  CG2        5.5590   29.0370   13.8950 C.3    97  THR97       0.0375
     34  N          1.7650   28.2640    8.0480 N.3   100  ARG100     -0.1231
     35  CA         1.3740   29.6570    7.8830 C.3   100  ARG100      0.1694
     36  C          2.4940   30.5600    7.3620 C.2   100  ARG100      0.2592
     37  O          2.1130   31.5450    6.7180 O.2   100  ARG100     -0.2718
     38  CB         0.8300   30.2330    9.1980 C.3   100  ARG100      0.0321
     39  CG        -0.6440   29.9040    9.4700 C.3   100  ARG100      0.0489
     40  CD        -0.7440   28.5300   10.0800 C.3   100  ARG100      0.2205
     41  NE        -2.0250   28.1310   10.6340 N.pl3 100  ARG100     -0.0865
     42  CZ        -2.2200   28.0320   11.9440 C.cat 100  ARG100      0.5346
     43  NH1       -1.2610   28.3050   12.8340 N.pl3 100  ARG100      0.1354
     44  NH2       -3.4100   27.6480   12.4150 N.pl3 100  ARG100      0.1354
     45  N          3.7820   30.3030    7.5890 N.am  101  PHE101     -0.1976
     46  CA         4.8010   31.2820    7.2010 C.3   101  PHE101      0.1639
     47  C          5.3820   30.9620    5.8310 C.2   101  PHE101      0.2290
     48  O          5.9170   31.8330    5.1480 O.2   101  PHE101     -0.2864
     49  CB         5.9820   31.3760    8.1710 C.3   101  PHE101      0.0560
     50  CG         5.6720   31.8170    9.5790 C.ar  101  PHE101     -0.0200
     51  CD1        4.3980   32.2440    9.9380 C.ar  101  PHE101     -0.0042
     52  CD2        6.6490   31.8120   10.5750 C.ar  101  PHE101     -0.0042
     53  CE1        4.1120   32.6210   11.2300 C.ar  101  PHE101     -0.0003
     54  CE2        6.3580   32.1880   11.8740 C.ar  101  PHE101     -0.0003
     55  CZ         5.0750   32.6160   12.2140 C.ar  101  PHE101     -0.0000
     56  N         -6.5090   22.0910   11.5020 N.3   124  ARG124     -0.1245
     57  CA        -6.1280   23.4110   12.0420 C.3   124  ARG124      0.1563
     58  C         -6.4250   24.5150   11.0500 C.2   124  ARG124      0.2260
     59  O         -6.4000   24.3660    9.8200 O.2   124  ARG124     -0.2867
     60  CB        -4.6540   23.3940   12.4660 C.3   124  ARG124      0.0307
     61  CG        -4.3980   22.3620   13.5400 C.3   124  ARG124      0.0489
     62  CD        -3.0050   22.4660   14.1240 C.3   124  ARG124      0.2205
     63  NE        -2.8360   23.7680   14.7870 N.pl3 124  ARG124     -0.0865
     64  CZ        -1.6600   24.2610   15.1650 C.cat 124  ARG124      0.5346
     65  NH1       -0.5520   23.5580   14.9520 N.pl3 124  ARG124      0.1354
     66  NH2       -1.6120   25.4530   15.7580 N.pl3 124  ARG124      0.1354
     67  N         -8.5510   33.4190   14.4930 N.3   166  ALA166     -0.1231
     68  CA        -8.2340   32.0190   14.8020 C.3   166  ALA166      0.1694
     69  C         -6.7470   31.8070   15.0500 C.2   166  ALA166      0.2593
     70  O         -6.3720   30.8040   15.6620 O.2   166  ALA166     -0.2718
     71  CB        -8.6770   31.1490   13.6340 C.3   166  ALA166      0.0304
     72  N         -5.9130   32.7430   14.5500 N.am  167  SER167     -0.1938
     73  CA        -4.4830   32.5590   14.7160 C.3   167  SER167      0.2055
     74  C         -3.6920   33.8190   14.3830 C.2   167  SER167      0.2644
     75  O         -3.8450   34.2910   13.2730 O.2   167  SER167     -0.2714
     76  CB        -3.8990   31.4860   13.7710 C.3   167  SER167      0.2130
     77  OG        -2.4970   31.3250   14.0420 O.3   167  SER167     -0.2179
     78  N         -2.8680   34.2740   15.3220 N.am  168  SER168     -0.1935
     79  CA        -1.9960   35.3940   14.9560 C.3   168  SER168      0.2055
     80  C         -1.0560   35.0010   13.8250 C.2   168  SER168      0.2642
     81  O         -0.5270   35.8890   13.1720 O.2   168  SER168     -0.2714
     82  CB        -1.1890   35.8050   16.1950 C.3   168  SER168      0.2130
     83  OG        -0.2600   34.7510   16.5200 O.3   168  SER168     -0.2179
     84  N         -0.7870   33.7180   13.5610 N.am  169  GLN169     -0.1976
     85  CA         0.2030   33.3660   12.5470 C.3   169  GLN169      0.1601
     86  C         -0.2520   33.7240   11.1520 C.2   169  GLN169      0.2287
     87  O          0.5410   33.7750   10.1890 O.2   169  GLN169     -0.2864
     88  CB         0.5400   31.8730   12.6120 C.3   169  GLN169      0.0394
     89  CG         1.0890   31.4440   13.9630 C.3   169  GLN169      0.0908
     90  CD         1.5120   29.9810   13.9660 C.2   169  GLN169      0.2608
     91  OE1        1.4680   29.3370   12.9140 O.2   169  GLN169     -0.2717
     92  NE2        1.9220   29.4730   15.1100 N.am  169  GLN169     -0.0878
     93  N          1.4250   37.1810   11.1500 N.3   172  SER172     -0.1217
     94  CA         2.8880   37.0180   11.0720 C.3   172  SER172      0.1889
     95  C          3.3430   36.4900    9.7250 C.2   172  SER172      0.2288
     96  O          4.3150   36.9900    9.1470 O.2   172  SER172     -0.2866
     97  CB         3.3850   36.1270   12.1990 C.3   172  SER172      0.2089
     98  OG         3.3090   36.8280   13.4320 O.3   172  SER172     -0.2183
     99  N         -5.6970   36.9860   18.9900 N.3   195  PRO195     -0.2102
    100  CA        -4.9010   36.3440   20.0370 C.3   195  PRO195      0.1504
    101  C         -3.3930   36.5880   19.8380 C.2   195  PRO195      0.2576
    102  O         -3.0050   36.9580   18.7240 O.2   195  PRO195     -0.2718
    103  CB        -5.2470   34.8560   19.8350 C.3   195  PRO195      0.0282
    104  CG        -5.4380   34.7450   18.3480 C.3   195  PRO195      0.0208
    105  CD        -6.1420   36.0260   17.9560 C.3   195  PRO195      0.0893
    106  N         -2.6110   36.3760   20.8820 N.am  196  SER196     -0.1953
    107  CA        -1.1560   36.2610   20.7880 C.3   196  SER196      0.1924
    108  C         -0.5150   37.5480   20.2870 C.2   196  SER196      0.2314
    109  O          0.4060   37.4850   19.4710 O.2   196  SER196     -0.2863
    110  CB        -0.7570   35.0970   19.8650 C.3   196  SER196      0.2116
    111  OG        -1.4750   33.9130   20.2430 O.3   196  SER196     -0.2180
    112  N          3.3300   37.5580   19.7520 N.3   199  HIS199     -0.1241
    113  CA         3.9700   36.8800   18.6210 C.3   199  HIS199      0.1621
    114  C          3.8930   37.7240   17.3760 C.2   199  HIS199      0.2264
    115  O          4.7210   37.6480   16.4780 O.2   199  HIS199     -0.2867
    116  CB         3.3320   35.4800   18.4150 C.3   199  HIS199      0.0745
    117  CG         3.9410   34.5430   19.4240 C.ar  199  HIS199      0.0817
    118  ND1        3.4070   34.3270   20.6730 N.ar  199  HIS199     -0.2268
    119  CD2        5.0650   33.7820   19.3280 C.ar  199  HIS199      0.1154
    120  CE1        4.1760   33.4640   21.3190 C.ar  199  HIS199      0.1986
    121  NE2        5.1840   33.1220   20.5210 N.ar  199  HIS199     -0.2212
    122  N         -1.4890   32.1590   24.9700 N.3   310  GLY310     -0.1210
    123  CA        -2.3110   30.9660   25.0540 C.3   310  GLY310      0.1956
    124  C         -1.4980   29.6930   25.1070 C.2   310  GLY310      0.2611
    125  O         -1.9700   28.7010   25.6670 O.2   310  GLY310     -0.2717
    126  N         -0.2900   29.6750   24.5420 N.am  311  GLU311     -0.1979
    127  CA         0.5020   28.4330   24.5700 C.3   311  GLU311      0.1602
    128  C          0.9740   28.0870   25.9710 C.2   311  GLU311      0.2287
    129  O          1.5010   26.9690   26.1260 O.2   311  GLU311     -0.2864
    130  CB         1.7150   28.4960   23.6140 C.3   311  GLU311      0.0415
    131  CG         2.6820   29.6150   24.0020 C.3   311  GLU311      0.1163
    132  CD         3.8330   29.7960   23.0270 C.2   311  GLU311      0.3649
    133  OE1        3.8060   29.2470   21.9100 O.co2 311  GLU311     -0.2457
    134  OE2        4.7950   30.5050   23.3620 O.co2 311  GLU311     -0.2457
    135  N         -9.3760   30.3960   21.0540 N.3   336  HIS336     -0.1241
    136  CA        -8.6320   29.9830   19.8600 C.3   336  HIS336      0.1621
    137  C         -7.8310   28.7040   20.1320 C.2   336  HIS336      0.2264
    138  O         -7.3400   28.0840   19.1850 O.2   336  HIS336     -0.2867
    139  CB        -7.7310   31.1200   19.3600 C.3   336  HIS336      0.0745
    140  CG        -6.7480   31.5370   20.4260 C.ar  336  HIS336      0.0817
    141  ND1       -7.1020   32.2490   21.5510 N.ar  336  HIS336     -0.2268
    142  CD2       -5.4120   31.3120   20.5370 C.ar  336  HIS336      0.1154
    143  CE1       -6.0360   32.4560   22.3090 C.ar  336  HIS336      0.1986
    144  NE2       -4.9910   31.8950   21.7120 N.ar  336  HIS336     -0.2212
    145  N         -5.5280   24.6050   18.1400 N.3   340  HIS340     -0.1226
    146  CA        -4.0990   24.3830   18.3090 C.3   340  HIS340      0.1752
    147  C         -3.6920   22.9750   17.8860 C.2   340  HIS340      0.2595
    148  O         -4.4990   22.3180   17.2150 O.2   340  HIS340     -0.2718
    149  CB        -3.7530   24.6850   19.7730 C.3   340  HIS340      0.0759
    150  CG        -3.3280   26.1250   19.9350 C.ar  340  HIS340      0.0818
    151  ND1       -2.6700   26.6180   21.0340 N.ar  340  HIS340     -0.2268
    152  CD2       -3.4980   27.1800   19.1060 C.ar  340  HIS340      0.1154
    153  CE1       -2.4330   27.9040   20.8800 C.ar  340  HIS340      0.1986
    154  NE2       -2.9280   28.2820   19.7030 N.ar  340  HIS340     -0.2212
    155  N         -2.4970   22.5220   18.2270 N.am  341  GLU341     -0.1979
    156  CA        -1.9300   21.2130   17.9120 C.3   341  GLU341      0.1602
    157  C         -3.0100   20.1200   18.0050 C.2   341  GLU341      0.2287
    158  O         -3.2100   19.2850   17.1450 O.2   341  GLU341     -0.2864
    159  CB        -0.7650   20.8830   18.8590 C.3   341  GLU341      0.0415
    160  CG         0.5630   21.5280   18.4680 C.3   341  GLU341      0.1163
    161  CD         0.7660   22.9370   18.9890 C.2   341  GLU341      0.3649
    162  OE1       -0.2250   23.6750   19.2170 O.co2 341  GLU341     -0.2457
    163  OE2        1.9370   23.3430   19.1820 O.co2 341  GLU341     -0.2457
    164  N         -6.8730   22.0480   22.6450 N.3   344  ARG344     -0.1245
    165  CA        -6.2850   21.9740   23.9780 C.3   344  ARG344      0.1563
    166  C         -7.2970   22.1520   25.0890 C.2   344  ARG344      0.2260
    167  O         -7.0980   21.6350   26.1930 O.2   344  ARG344     -0.2867
    168  CB        -5.1380   23.0150   24.1110 C.3   344  ARG344      0.0307
    169  CG        -3.9040   22.4920   23.3470 C.3   344  ARG344      0.0489
    170  CD        -2.7990   23.5390   23.3170 C.3   344  ARG344      0.2205
    171  NE        -1.5150   22.9850   22.8910 N.pl3 344  ARG344     -0.0865
    172  CZ        -0.4550   23.7270   22.5710 C.cat 344  ARG344      0.5346
    173  NH1       -0.5590   25.0590   22.6290 N.pl3 344  ARG344      0.1354
    174  NH2        0.6720   23.1240   22.2010 N.pl3 344  ARG344      0.1354
    175  N          3.0430   20.1600   24.4650 N.3   385  ARG385     -0.1245
    176  CA         2.6470   20.8340   25.7010 C.3   385  ARG385      0.1563
    177  C          1.6800   20.0300   26.5500 C.2   385  ARG385      0.2260
    178  O          1.6670   20.1590   27.7800 O.2   385  ARG385     -0.2867
    179  CB         2.0400   22.2030   25.3520 C.3   385  ARG385      0.0307
    180  CG         2.9990   22.9880   24.4490 C.3   385  ARG385      0.0489
    181  CD         3.0230   24.4590   24.8800 C.3   385  ARG385      0.2205
    182  NE         3.7670   25.2250   23.8720 N.pl3 385  ARG385     -0.0865
    183  CZ         5.0950   25.2760   23.8510 C.cat 385  ARG385      0.5346
    184  NH1        5.7950   24.6250   24.7700 N.pl3 385  ARG385      0.1354
    185  NH2        5.6910   25.9850   22.9040 N.pl3 385  ARG385      0.1354
@<TRIPOS>BOND
     1    48    47    2
     2    47    46    1
     3    37    36    2
     4    46    45    1
     5    46    49    1
     6    36    45   am
     7    36    35    1
     8    35    34    1
     9    35    38    1
    10    49    50    1
    11    96    95    2
    12    38    39    1
    13    30    29    2
    14    39    40    1
    15    50    51   ar
    16    50    52   ar
    17    95    94    1
    18    59    58    2
    19    51    53   ar
    20    40    41    1
    21    87    86    2
    22    29    28    1
    23    19    18    2
    24    52    54   ar
    25    41    42    2
    26    58    57    1
    27    94    93    1
    28    94    97    1
    29    86    85    1
    30    53    55   ar
    31    18    17    1
    32    56    57    1
    33    28    27    1
    34    28    31    1
    35    54    55   ar
    36    42    44    1
    37    42    43    1
    38    57    60    1
    39    17    16    1
    40    17    20    1
    41    97    98    1
    42    60    61    1
    43    31    32    1
    44    31    33    1
    45    85    88    1
    46    85    84    1
    47    88    89    1
    48    91    90    2
    49    20    21    1
    50    81    80    2
    51    75    74    2
    52    21    22    1
    53    61    62    1
    54    84    80   am
    55    71    68    1
    56    76    77    1
    57    76    73    1
    58    80    79    1
    59    89    90    1
    60    90    92   am
    61    62    63    1
    62    74    73    1
    63    74    78   am
    64    67    68    1
    65    72    73    1
    66    72    69   am
    67    22    23    1
    68    63    64    2
    69    68    69    1
    70    23    24    2
    71    65    64    1
    72    79    78    1
    73    79    82    1
    74    69    70    2
    75    64    66    1
    76    24    25    1
    77    24    26    1
    78    13    12    2
    79    82    83    1
    80     4     3    2
    81   115   114    2
    82    12    11    1
    83   158   157    2
    84     7     6    1
    85     7     8    1
    86   148   147    2
    87     6     5    1
    88   114   113    1
    89    11    10    1
    90    11    14    1
    91     3    10   am
    92     3     2    1
    93   147   155   am
    94   147   146    1
    95   156   157    1
    96   156   155    1
    97   156   159    1
    98   105   104    1
    99   105    99    1
   100     8     9    1
   101   145   146    1
   102   146   149    1
   103    14    15    1
   104   104   103    1
   105     2     5    1
   106     2     1    1
   107   116   113    1
   108   116   117    1
   109   160   159    1
   110   160   161    1
   111   113   112    1
   112   102   101    2
   113   161   163   ar
   114   161   162   ar
   115    99   100    1
   116   152   154   ar
   117   152   150   ar
   118   138   137    2
   119   119   117   ar
   120   119   121   ar
   121   139   136    1
   122   139   140    1
   123   117   118   ar
   124   109   108    2
   125   154   153   ar
   126   149   150    1
   127   103   100    1
   128   101   100    1
   129   101   106   am
   130   136   137    1
   131   136   135    1
   132   110   111    1
   133   110   107    1
   134   150   151   ar
   135   108   107    1
   136   140   142   ar
   137   140   141   ar
   138   121   120   ar
   139   142   144   ar
   140   118   120   ar
   141   107   106    1
   142   153   151   ar
   143   141   143   ar
   144   144   143   ar
   145   133   132   ar
   146   174   172    1
   147   172   173    1
   148   172   171    2
   149   164   165    1
   150   171   170    1
   151   185   183    1
   152   132   134   ar
   153   132   131    1
   154   170   169    1
   155   169   168    1
   156   130   131    1
   157   130   127    1
   158   183   182    2
   159   183   184    1
   160   182   181    1
   161   165   168    1
   162   165   166    1
   163   180   181    1
   164   180   179    1
   165   175   176    1
   166   126   127    1
   167   126   124   am
   168   127   128    1
   169   122   123    1
   170   123   124    1
   171   166   167    2
   172   124   125    2
   173   179   176    1
   174   176   177    1
   175   128   129    2
   176   177   178    2
