@<TRIPOS>MOLECULE
tmp/2o0hA00.pdb
 117 111 0 0 0
SMALL
GASTEIGER

@<TRIPOS>ATOM
      1  N        -14.3760  -19.8110  -11.1850 N.3   127  ILE127     -0.1231
      2  CA       -14.1530  -18.7880  -12.1960 C.3   127  ILE127      0.1692
      3  C        -15.0720  -17.6320  -11.8120 C.2   127  ILE127      0.2592
      4  O        -16.0100  -17.8150  -11.0320 O.2   127  ILE127     -0.2718
      5  CB       -14.4930  -19.2890  -13.6250 C.3   127  ILE127      0.0266
      6  CG1      -15.8750  -19.9440  -13.6580 C.3   127  ILE127      0.0019
      7  CG2      -13.4210  -20.2590  -14.0980 C.3   127  ILE127      0.0020
      8  CD1      -17.0300  -18.9720  -13.8260 C.3   127  ILE127      0.0001
      9  N        -14.8020  -16.4440  -12.3420 N.am  128  THR128     -0.1953
     10  CA       -15.6220  -15.2860  -12.0220 C.3   128  THR128      0.1897
     11  C        -16.7270  -15.0490  -13.0440 C.2   128  THR128      0.2313
     12  O        -16.4670  -14.8970  -14.2360 O.2   128  THR128     -0.2863
     13  CB       -14.7710  -14.0090  -11.9180 C.3   128  THR128      0.1794
     14  OG1      -13.7720  -14.1810  -10.9040 O.3   128  THR128     -0.2208
     15  CG2      -15.6510  -12.8120  -11.5580 C.3   128  THR128      0.0378
     16  N        -16.3850  -23.8060  -11.0590 N.3   137  VAL137     -0.1231
     17  CA       -16.2150  -23.9680  -12.4930 C.3   137  VAL137      0.1692
     18  C        -16.8050  -25.2590  -13.0480 C.2   137  VAL137      0.2591
     19  O        -16.6790  -26.3270  -12.4470 O.2   137  VAL137     -0.2718
     20  CB       -14.7140  -23.9200  -12.8770 C.3   137  VAL137      0.0266
     21  CG1      -13.9840  -25.0950  -12.2480 C.3   137  VAL137      0.0020
     22  CG2      -14.5530  -23.9500  -14.3960 C.3   137  VAL137      0.0020
     23  N        -17.4850  -25.1410  -14.1830 N.am  138  GLN138     -0.1979
     24  CA       -18.0220  -26.2940  -14.8910 C.3   138  GLN138      0.1601
     25  C        -17.0440  -26.3480  -16.0630 C.2   138  GLN138      0.2287
     26  O        -17.0700  -25.4770  -16.9320 O.2   138  GLN138     -0.2864
     27  CB       -19.4350  -26.0370  -15.4190 C.3   138  GLN138      0.0394
     28  CG       -20.5550  -26.4040  -14.4600 C.3   138  GLN138      0.0908
     29  CD       -21.9150  -26.4380  -15.1470 C.2   138  GLN138      0.2608
     30  OE1      -22.4690  -25.4020  -15.5140 O.2   138  GLN138     -0.2717
     31  NE2      -22.4510  -27.6400  -15.3330 N.am  138  GLN138     -0.0878
     32  N        -15.2150  -27.0890  -19.5090 N.3   140  ARG140     -0.1245
     33  CA       -15.6780  -27.3090  -20.8680 C.3   140  ARG140      0.1563
     34  C        -15.1200  -28.6930  -21.1890 C.2   140  ARG140      0.2260
     35  O        -14.1490  -29.1230  -20.5620 O.2   140  ARG140     -0.2867
     36  CB       -15.0930  -26.2440  -21.8020 C.3   140  ARG140      0.0307
     37  CG       -15.6630  -24.8620  -21.5250 C.3   140  ARG140      0.0489
     38  CD       -14.9160  -23.7330  -22.2090 C.3   140  ARG140      0.2205
     39  NE       -15.5920  -22.4680  -21.9320 N.pl3 140  ARG140     -0.0865
     40  CZ       -15.0160  -21.2730  -21.9770 C.cat 140  ARG140      0.5346
     41  NH1      -13.7310  -21.1580  -22.2930 N.pl3 140  ARG140      0.1354
     42  NH2      -15.7290  -20.1910  -21.6880 N.pl3 140  ARG140      0.1354
     43  N        -11.3960  -28.8520  -21.6940 N.3   143  GLN143     -0.1245
     44  CA       -10.6400  -28.5940  -20.4730 C.3   143  GLN143      0.1566
     45  C        -10.5760  -29.8730  -19.6520 C.2   143  GLN143      0.2260
     46  O         -9.5450  -30.1930  -19.0610 O.2   143  GLN143     -0.2867
     47  CB       -11.2930  -27.4800  -19.6520 C.3   143  GLN143      0.0367
     48  CG       -11.2670  -26.1300  -20.3470 C.3   143  GLN143      0.0905
     49  CD       -11.9500  -25.0390  -19.5440 C.2   143  GLN143      0.2608
     50  OE1      -13.0540  -25.2270  -19.0160 O.2   143  GLN143     -0.2717
     51  NE2      -11.3060  -23.8810  -19.4650 N.am  143  GLN143     -0.0878
     52  N         -6.6980  -19.8200  -30.1690 N.3   162  ARG162     -0.1231
     53  CA        -6.7270  -18.7360  -29.1950 C.3   162  ARG162      0.1694
     54  C         -8.0520  -18.5410  -28.4570 C.2   162  ARG162      0.2592
     55  O         -9.1140  -18.9590  -28.9220 O.2   162  ARG162     -0.2718
     56  CB        -6.3260  -17.4240  -29.8640 C.3   162  ARG162      0.0321
     57  CG        -7.3340  -16.8970  -30.8530 C.3   162  ARG162      0.0489
     58  CD        -6.9180  -15.5240  -31.3780 C.3   162  ARG162      0.2205
     59  NE        -6.7960  -14.5420  -30.3020 N.pl3 162  ARG162     -0.0865
     60  CZ        -5.6480  -13.9880  -29.9190 C.cat 162  ARG162      0.5346
     61  NH1       -4.5180  -14.3150  -30.5280 N.pl3 162  ARG162      0.1354
     62  NH2       -5.6290  -13.1110  -28.9230 N.pl3 162  ARG162      0.1354
     63  N         -7.9630  -17.9060  -27.2910 N.am  163  GLN163     -0.1966
     64  CA        -9.1240  -17.5990  -26.4600 C.3   163  GLN163      0.1733
     65  C        -10.0460  -18.7790  -26.1690 C.2   163  GLN163      0.2616
     66  O        -11.2430  -18.7310  -26.4550 O.2   163  GLN163     -0.2715
     67  CB        -9.9110  -16.4510  -27.1040 C.3   163  GLN163      0.0408
     68  CG        -9.0740  -15.1840  -27.3040 C.3   163  GLN163      0.0908
     69  CD        -9.7430  -14.1620  -28.2100 C.2   163  GLN163      0.2608
     70  OE1       -9.9520  -14.4090  -29.4020 O.2   163  GLN163     -0.2717
     71  NE2      -10.0890  -13.0090  -27.6470 N.am  163  GLN163     -0.0878
     72  N         -9.4830  -19.8360  -25.5890 N.am  164  LEU164     -0.1963
     73  CA       -10.2420  -21.0330  -25.2350 C.3   164  LEU164      0.1728
     74  C        -10.3950  -21.1370  -23.7210 C.2   164  LEU164      0.2617
     75  O        -11.0950  -22.0250  -23.2240 O.2   164  LEU164     -0.2715
     76  CB        -9.5320  -22.3040  -25.7200 C.3   164  LEU164      0.0311
     77  CG        -9.3980  -22.6130  -27.2110 C.3   164  LEU164      0.0022
     78  CD1       -8.8030  -24.0130  -27.3520 C.3   164  LEU164      0.0001
     79  CD2      -10.7660  -22.5480  -27.9050 C.3   164  LEU164      0.0001
     80  N         -9.7350  -20.2360  -23.0000 N.am  165  GLY165     -0.1940
     81  CA        -9.7800  -20.2630  -21.5470 C.3   165  GLY165      0.2014
     82  C         -8.8110  -21.3020  -20.9980 C.2   165  GLY165      0.2639
     83  O         -9.0310  -21.8720  -19.9270 O.2   165  GLY165     -0.2714
     84  N         -7.7190  -21.5400  -21.7200 N.am  166  LYS166     -0.1963
     85  CA        -6.7530  -22.5520  -21.3040 C.3   166  LYS166      0.1728
     86  C         -5.9620  -22.2350  -20.0350 C.2   166  LYS166      0.2617
     87  O         -5.5150  -23.1450  -19.3480 O.2   166  LYS166     -0.2715
     88  CB        -5.7660  -22.8400  -22.4360 C.3   166  LYS166      0.0311
     89  CG        -4.7010  -21.7870  -22.5780 C.3   166  LYS166      0.0038
     90  CD        -3.3270  -22.4300  -22.6720 C.3   166  LYS166      0.0206
     91  CE        -2.3070  -21.6710  -21.8420 C.3   166  LYS166      0.1093
     92  NZ        -2.3540  -20.1980  -22.0670 N.3   166  LYS166     -0.1314
     93  N         -5.7650  -20.9580  -19.7300 N.am  167  THR167     -0.1937
     94  CA        -5.0070  -20.6000  -18.5340 C.3   167  THR167      0.2028
     95  C         -5.7300  -21.0990  -17.2920 C.2   167  THR167      0.2642
     96  O         -5.1050  -21.4830  -16.3010 O.2   167  THR167     -0.2714
     97  CB        -4.8050  -19.0760  -18.4360 C.3   167  THR167      0.1808
     98  OG1       -4.1160  -18.6160  -19.6030 O.3   167  THR167     -0.2208
     99  CG2       -3.9820  -18.7270  -17.2060 C.3   167  THR167      0.0379
    100  N         -7.0550  -21.1070  -17.3630 N.am  168  THR168     -0.1950
    101  CA        -7.8790  -21.5650  -16.2540 C.3   168  THR168      0.1897
    102  C         -7.5690  -23.0170  -15.9190 C.2   168  THR168      0.2313
    103  O         -7.4230  -23.3690  -14.7430 O.2   168  THR168     -0.2863
    104  CB        -9.3770  -21.4290  -16.5910 C.3   168  THR168      0.1794
    105  OG1       -9.7090  -20.0400  -16.7150 O.3   168  THR168     -0.2208
    106  CG2      -10.2260  -22.0590  -15.5040 C.3   168  THR168      0.0378
    107  N         -2.1860  -16.8690  -11.4240 N.3   202  ARG202     -0.1245
    108  CA        -3.4510  -17.5690  -11.5940 C.3   202  ARG202      0.1563
    109  C         -3.4470  -18.8380  -10.7390 C.2   202  ARG202      0.2260
    110  O         -4.4600  -19.2040  -10.1450 O.2   202  ARG202     -0.2867
    111  CB        -3.6710  -17.9200  -13.0730 C.3   202  ARG202      0.0307
    112  CG        -3.8910  -16.7030  -13.9740 C.3   202  ARG202      0.0489
    113  CD        -5.2260  -16.0240  -13.6790 C.3   202  ARG202      0.2205
    114  NE        -6.3570  -16.8470  -14.1000 N.pl3 202  ARG202     -0.0865
    115  CZ        -6.7060  -17.0450  -15.3680 C.cat 202  ARG202      0.5346
    116  NH1       -7.7430  -17.8170  -15.6580 N.pl3 202  ARG202      0.1354
    117  NH2       -6.0310  -16.4530  -16.3480 N.pl3 202  ARG202      0.1354
@<TRIPOS>BOND
     1    58    57    1
     2    58    59    1
     3    57    56    1
     4    61    60    1
     5    59    60    2
     6    52    53    1
     7    60    62    1
     8    56    53    1
     9    70    69    2
    10    53    54    1
    11    55    54    2
    12    54    63   am
    13    69    71   am
    14    69    68    1
    15    79    77    1
    16    78    77    1
    17    68    67    1
    18    63    64    1
    19    77    76    1
    20    67    64    1
    21    64    65    1
    22    66    65    2
    23    65    72   am
    24    76    73    1
    25    72    73    1
    26    73    74    1
    27    74    75    2
    28    74    80   am
    29    80    81    1
    30    90    89    1
    31    90    91    1
    32    89    88    1
    33    88    85    1
    34    41    40    1
    35    38    39    1
    36    38    37    1
    37    92    91    1
    38    40    39    2
    39    40    42    1
    40    36    37    1
    41    36    33    1
    42    84    85    1
    43    84    82   am
    44    43    44    1
    45    81    82    1
    46    85    86    1
    47    34    33    1
    48    34    35    2
    49    82    83    2
    50    33    32    1
    51    44    47    1
    52    44    45    1
    53    48    47    1
    54    48    49    1
    55    86    93   am
    56    86    87    2
    57    93    94    1
    58    45    46    2
    59    98    97    1
    60    49    51   am
    61    49    50    2
    62    94    97    1
    63    94    95    1
    64    97    99    1
    65   100    95   am
    66   100   101    1
    67    95    96    2
    68    26    25    2
    69   105   104    1
    70   104   101    1
    71   104   106    1
    72   117   115    1
    73   101   102    1
    74    25    24    1
    75   102   103    2
    76   116   115    1
    77    30    29    2
    78    27    24    1
    79    27    28    1
    80   115   114    2
    81    31    29   am
    82    29    28    1
    83    24    23    1
    84    22    20    1
    85    12    11    2
    86    23    18   am
    87   114   113    1
    88     7     5    1
    89   112   113    1
    90   112   111    1
    91     8     6    1
    92     6     5    1
    93     5     2    1
    94   111   108    1
    95    18    17    1
    96    18    19    2
    97    11    10    1
    98    20    17    1
    99    20    21    1
   100    17    16    1
   101     9    10    1
   102     9     3   am
   103     2     3    1
   104     2     1    1
   105    10    13    1
   106    13    15    1
   107    13    14    1
   108     3     4    2
   109   108   107    1
   110   108   109    1
   111   109   110    2
