@<TRIPOS>MOLECULE
tmp/2o0jA00.pdb
 116 111 0 0 0
SMALL
GASTEIGER

@<TRIPOS>ATOM
      1  N        -14.3470  -19.7310  -11.1600 N.3   127  ILE127     -0.1231
      2  CA       -14.1640  -18.7230  -12.1960 C.3   127  ILE127      0.1692
      3  C        -15.1290  -17.6000  -11.8330 C.2   127  ILE127      0.2593
      4  O        -16.1240  -17.8310  -11.1420 O.2   127  ILE127     -0.2718
      5  CB       -14.4810  -19.2580  -13.6250 C.3   127  ILE127      0.0266
      6  CG1      -15.8450  -19.9520  -13.6640 C.3   127  ILE127      0.0019
      7  CG2      -13.3690  -20.1930  -14.0840 C.3   127  ILE127      0.0020
      8  CD1      -17.0000  -19.0330  -14.0500 C.3   127  ILE127      0.0001
      9  N        -14.8370  -16.3860  -12.2830 N.am  128  THR128     -0.1939
     10  CA       -15.6930  -15.2510  -11.9640 C.3   128  THR128      0.2028
     11  C        -16.7500  -14.9810  -13.0320 C.2   128  THR128      0.2642
     12  O        -16.4310  -14.6150  -14.1630 O.2   128  THR128     -0.2714
     13  CB       -14.8520  -13.9790  -11.7490 C.3   128  THR128      0.1808
     14  OG1      -13.8330  -14.2420  -10.7750 O.3   128  THR128     -0.2208
     15  CG2      -15.7320  -12.8370  -11.2520 C.3   128  THR128      0.0379
     16  N        -18.0130  -15.1680  -12.6620 N.am  129  HIS129     -0.1973
     17  CA       -19.1210  -14.9380  -13.5790 C.3   129  HIS129      0.1656
     18  C        -19.3580  -13.4340  -13.6490 C.2   129  HIS129      0.2291
     19  O        -19.0880  -12.7140  -12.6870 O.2   129  HIS129     -0.2864
     20  CB       -20.3850  -15.6370  -13.0770 C.3   129  HIS129      0.0771
     21  CG       -21.3230  -16.0460  -14.1700 C.ar  129  HIS129      0.0820
     22  ND1      -21.1550  -17.2030  -14.9000 N.ar  129  HIS129     -0.2267
     23  CD2      -22.4360  -15.4500  -14.6610 C.ar  129  HIS129      0.1154
     24  CE1      -22.1250  -17.3050  -15.7900 C.ar  129  HIS129      0.1986
     25  NE2      -22.9160  -16.2540  -15.6660 N.ar  129  HIS129     -0.2212
     26  N        -16.3450  -23.7560  -11.0550 N.3   137  VAL137     -0.1231
     27  CA       -16.1830  -23.8940  -12.4970 C.3   137  VAL137      0.1692
     28  C        -16.7630  -25.1900  -13.0430 C.2   137  VAL137      0.2591
     29  O        -16.6130  -26.2590  -12.4470 O.2   137  VAL137     -0.2718
     30  CB       -14.6830  -23.8050  -12.8960 C.3   137  VAL137      0.0266
     31  CG1      -13.8900  -24.9490  -12.2590 C.3   137  VAL137      0.0020
     32  CG2      -14.5420  -23.8590  -14.4200 C.3   137  VAL137      0.0020
     33  N        -17.4550  -25.0760  -14.1720 N.am  138  GLN138     -0.1979
     34  CA       -17.9950  -26.2370  -14.8610 C.3   138  GLN138      0.1601
     35  C        -17.0280  -26.2880  -16.0350 C.2   138  GLN138      0.2287
     36  O        -17.0570  -25.4110  -16.8970 O.2   138  GLN138     -0.2864
     37  CB       -19.4180  -26.0020  -15.3750 C.3   138  GLN138      0.0394
     38  CG       -20.5130  -26.1740  -14.3290 C.3   138  GLN138      0.0908
     39  CD       -21.8970  -26.2840  -14.9630 C.2   138  GLN138      0.2608
     40  OE1      -22.3970  -25.3300  -15.5550 O.2   138  GLN138     -0.2717
     41  NE2      -22.5190  -27.4630  -14.8400 N.am  138  GLN138     -0.0878
     42  N        -15.1580  -27.0750  -19.5150 N.3   140  ARG140     -0.1245
     43  CA       -15.6110  -27.2870  -20.8720 C.3   140  ARG140      0.1563
     44  C        -15.0870  -28.6830  -21.1980 C.2   140  ARG140      0.2260
     45  O        -14.1230  -29.1390  -20.5780 O.2   140  ARG140     -0.2867
     46  CB       -15.0010  -26.2370  -21.8030 C.3   140  ARG140      0.0307
     47  CG       -15.6240  -24.8740  -21.5830 C.3   140  ARG140      0.0489
     48  CD       -14.8790  -23.7470  -22.2490 C.3   140  ARG140      0.2205
     49  NE       -15.5860  -22.4980  -21.9960 N.pl3 140  ARG140     -0.0865
     50  CZ       -15.0250  -21.2960  -22.0040 C.cat 140  ARG140      0.5346
     51  NH1      -13.7280  -21.1620  -22.2600 N.pl3 140  ARG140      0.1354
     52  NH2      -15.7640  -20.2290  -21.7330 N.pl3 140  ARG140      0.1354
     53  N        -11.3940  -28.8870  -21.6890 N.3   143  GLN143     -0.1245
     54  CA       -10.6300  -28.6410  -20.4690 C.3   143  GLN143      0.1566
     55  C        -10.5850  -29.9150  -19.6380 C.2   143  GLN143      0.2260
     56  O         -9.5750  -30.2270  -19.0300 O.2   143  GLN143     -0.2867
     57  CB       -11.2590  -27.5090  -19.6540 C.3   143  GLN143      0.0367
     58  CG       -11.2820  -26.1860  -20.4050 C.3   143  GLN143      0.0905
     59  CD       -11.9050  -25.0410  -19.6080 C.2   143  GLN143      0.2608
     60  OE1      -12.9800  -25.1910  -19.0360 O.2   143  GLN143     -0.2717
     61  NE2      -11.2400  -23.8870  -19.5920 N.am  143  GLN143     -0.0878
     62  N         -7.9620  -17.8830  -27.2690 N.3   163  GLN163     -0.1231
     63  CA        -9.1210  -17.5690  -26.4420 C.3   163  GLN163      0.1698
     64  C        -10.0500  -18.7440  -26.1520 C.2   163  GLN163      0.2592
     65  O        -11.2490  -18.6800  -26.4120 O.2   163  GLN163     -0.2718
     66  CB        -9.8920  -16.4100  -27.0830 C.3   163  GLN163      0.0381
     67  CG        -9.1470  -15.0780  -26.9760 C.3   163  GLN163      0.0905
     68  CD        -9.6420  -14.0390  -27.9640 C.2   163  GLN163      0.2608
     69  OE1       -9.3260  -14.0990  -29.1520 O.2   163  GLN163     -0.2717
     70  NE2      -10.4300  -13.0830  -27.4790 N.am  163  GLN163     -0.0878
     71  N         -9.4900  -19.8130  -25.5920 N.am  164  LEU164     -0.1966
     72  CA       -10.2650  -21.0000  -25.2440 C.3   164  LEU164      0.1728
     73  C        -10.4250  -21.1260  -23.7350 C.2   164  LEU164      0.2617
     74  O        -11.1720  -21.9850  -23.2550 O.2   164  LEU164     -0.2715
     75  CB        -9.5710  -22.2720  -25.7400 C.3   164  LEU164      0.0311
     76  CG        -9.4410  -22.5450  -27.2400 C.3   164  LEU164      0.0022
     77  CD1       -8.8460  -23.9450  -27.4200 C.3   164  LEU164      0.0001
     78  CD2      -10.8160  -22.4590  -27.9200 C.3   164  LEU164      0.0001
     79  N         -9.7150  -20.2810  -22.9960 N.am  165  GLY165     -0.1940
     80  CA        -9.7670  -20.3330  -21.5440 C.3   165  GLY165      0.2014
     81  C         -8.7690  -21.3500  -21.0080 C.2   165  GLY165      0.2639
     82  O         -8.9560  -21.9100  -19.9280 O.2   165  GLY165     -0.2714
     83  N         -7.6900  -21.5790  -21.7470 N.am  166  LYS166     -0.1963
     84  CA        -6.7060  -22.5690  -21.3290 C.3   166  LYS166      0.1728
     85  C         -5.8990  -22.2120  -20.0860 C.2   166  LYS166      0.2617
     86  O         -5.4160  -23.0950  -19.3980 O.2   166  LYS166     -0.2715
     87  CB        -5.7610  -22.9020  -22.4890 C.3   166  LYS166      0.0311
     88  CG        -4.6480  -21.9080  -22.7180 C.3   166  LYS166      0.0038
     89  CD        -3.3620  -22.3930  -22.0710 C.3   166  LYS166      0.0206
     90  CE        -2.2190  -21.4320  -22.3190 C.3   166  LYS166      0.1093
     91  NZ        -2.5440  -20.0490  -21.8820 N.3   166  LYS166     -0.1314
     92  N         -5.7470  -20.9270  -19.7860 N.am  167  THR167     -0.1937
     93  CA        -4.9850  -20.5530  -18.6040 C.3   167  THR167      0.2028
     94  C         -5.6780  -21.0570  -17.3460 C.2   167  THR167      0.2642
     95  O         -5.0260  -21.4180  -16.3630 O.2   167  THR167     -0.2714
     96  CB        -4.8120  -19.0320  -18.5070 C.3   167  THR167      0.1808
     97  OG1       -4.0640  -18.5750  -19.6370 O.3   167  THR167     -0.2208
     98  CG2       -4.0580  -18.6700  -17.2320 C.3   167  THR167      0.0379
     99  N         -7.0040  -21.0870  -17.3900 N.am  168  THR168     -0.1950
    100  CA        -7.8030  -21.5520  -16.2680 C.3   168  THR168      0.1897
    101  C         -7.4760  -23.0080  -15.9510 C.2   168  THR168      0.2313
    102  O         -7.2890  -23.3680  -14.7830 O.2   168  THR168     -0.2863
    103  CB        -9.3110  -21.4230  -16.5820 C.3   168  THR168      0.1794
    104  OG1       -9.6410  -20.0380  -16.7600 O.3   168  THR168     -0.2208
    105  CG2      -10.1460  -22.0050  -15.4600 C.3   168  THR168      0.0378
    106  N         -2.1160  -16.8670  -11.4430 N.3   202  ARG202     -0.1245
    107  CA        -3.3940  -17.5430  -11.6180 C.3   202  ARG202      0.1563
    108  C         -3.4240  -18.8180  -10.7750 C.2   202  ARG202      0.2260
    109  O         -4.4560  -19.1840  -10.2210 O.2   202  ARG202     -0.2867
    110  CB        -3.6220  -17.8800  -13.0950 C.3   202  ARG202      0.0307
    111  CG        -3.8870  -16.6590  -13.9700 C.3   202  ARG202      0.0489
    112  CD        -5.2270  -16.0110  -13.6230 C.3   202  ARG202      0.2205
    113  NE        -6.3660  -16.8540  -13.9810 N.pl3 202  ARG202     -0.0865
    114  CZ        -6.7750  -17.0730  -15.2290 C.cat 202  ARG202      0.5346
    115  NH1       -7.8170  -17.8590  -15.4550 N.pl3 202  ARG202      0.1354
    116  NH2       -6.1520  -16.4940  -16.2530 N.pl3 202  ARG202      0.1354
@<TRIPOS>BOND
     1    69    68    2
     2    68    70   am
     3    68    67    1
     4    78    76    1
     5    77    76    1
     6    62    63    1
     7    76    75    1
     8    66    67    1
     9    66    63    1
    10    63    64    1
    11    65    64    2
    12    64    71   am
    13    75    72    1
    14    71    72    1
    15    72    73    1
    16    73    74    2
    17    73    79   am
    18    79    80    1
    19    88    87    1
    20    88    89    1
    21    87    84    1
    22    90    89    1
    23    90    91    1
    24    51    50    1
    25    48    49    1
    26    48    47    1
    27    50    49    2
    28    50    52    1
    29    46    47    1
    30    46    43    1
    31    83    84    1
    32    83    81   am
    33    53    54    1
    34    80    81    1
    35    84    85    1
    36    44    43    1
    37    44    45    2
    38    81    82    2
    39    43    42    1
    40    54    57    1
    41    54    55    1
    42    58    57    1
    43    58    59    1
    44    85    92   am
    45    85    86    2
    46    92    93    1
    47    55    56    2
    48    97    96    1
    49    59    61   am
    50    59    60    2
    51    93    96    1
    52    93    94    1
    53    96    98    1
    54    99    94   am
    55    99   100    1
    56    94    95    2
    57    36    35    2
    58   104   103    1
    59   103   100    1
    60   103   105    1
    61   100   101    1
    62   116   114    1
    63    35    34    1
    64   101   102    2
    65    24    25   ar
    66    24    22   ar
    67    25    23   ar
    68    40    39    2
    69   115   114    1
    70    37    34    1
    71    37    38    1
    72   114   113    2
    73    39    41   am
    74    39    38    1
    75    22    21   ar
    76    34    33    1
    77    23    21   ar
    78    32    30    1
    79    33    28   am
    80    21    20    1
    81    12    11    2
    82     7     5    1
    83     8     6    1
    84   113   112    1
    85   111   112    1
    86   111   110    1
    87     6     5    1
    88    18    17    1
    89    18    19    2
    90     5     2    1
    91    17    20    1
    92    17    16    1
    93   110   107    1
    94    28    27    1
    95    28    29    2
    96    11    16   am
    97    11    10    1
    98    30    27    1
    99    30    31    1
   100    27    26    1
   101     9    10    1
   102     9     3   am
   103     2     3    1
   104     2     1    1
   105    10    13    1
   106     3     4    2
   107    13    15    1
   108    13    14    1
   109   107   106    1
   110   107   108    1
   111   108   109    2
