@<TRIPOS>MOLECULE
tmp/2o0lB00.pdb
 210 199 0 0 0
SMALL
GASTEIGER

@<TRIPOS>ATOM
      1  N          8.6220   -2.8510   52.0440 N.3    35  GLN35      -0.1245
      2  CA         8.8510   -1.7120   52.9470 C.3    35  GLN35       0.1566
      3  C          7.8010   -0.6560   52.7670 C.2    35  GLN35       0.2260
      4  O          7.0810   -0.6580   51.7720 O.2    35  GLN35      -0.2867
      5  CB        10.2330   -1.0630   52.7130 C.3    35  GLN35       0.0367
      6  CG        10.5040   -0.5800   51.3160 C.3    35  GLN35       0.0905
      7  CD        12.0090   -0.5860   50.9640 C.2    35  GLN35       0.2608
      8  OE1       12.8680   -0.2860   51.7980 O.2    35  GLN35      -0.2717
      9  NE2       12.3110   -0.8880   49.7240 N.am   35  GLN35      -0.0878
     10  N         12.4700   11.2390   49.9220 N.3    49  LEU49      -0.1245
     11  CA        12.1120    9.8150   50.0200 C.3    49  LEU49       0.1561
     12  C         12.4250    9.1840   51.3860 C.2    49  LEU49       0.2260
     13  O         13.5220    9.3240   51.9280 O.2    49  LEU49      -0.2867
     14  CB        12.7150    8.9740   48.8920 C.3    49  LEU49       0.0270
     15  CG        12.4390    7.4570   48.8930 C.3    49  LEU49       0.0019
     16  CD1       10.9800    7.1190   48.5620 C.3    49  LEU49       0.0001
     17  CD2       13.4000    6.7410   47.9130 C.3    49  LEU49       0.0001
     18  N         11.9350    5.5380   53.5860 N.3    51  LEU51      -0.1245
     19  CA        11.7340    4.0760   53.5630 C.3    51  LEU51       0.1561
     20  C         11.6860    3.4890   54.9780 C.2    51  LEU51       0.2260
     21  O         12.6780    3.5590   55.7620 O.2    51  LEU51      -0.2867
     22  CB        12.8090    3.3720   52.6910 C.3    51  LEU51       0.0270
     23  CG        12.7750    3.5550   51.1620 C.3    51  LEU51       0.0019
     24  CD1       13.8530    2.6800   50.4590 C.3    51  LEU51       0.0001
     25  CD2       11.3190    3.3450   50.5600 C.3    51  LEU51       0.0001
     26  N         15.7530    8.5630   53.0830 N.3    56  GLN56      -0.1231
     27  CA        16.7060    7.9730   52.1200 C.3    56  GLN56       0.1698
     28  C         17.4340    9.0830   51.4070 C.2    56  GLN56       0.2592
     29  O         18.6520    9.0430   51.2820 O.2    56  GLN56      -0.2718
     30  CB        15.9770    7.0460   51.1230 C.3    56  GLN56       0.0381
     31  CG        15.2830    5.8630   51.8380 C.3    56  GLN56       0.0905
     32  CD        16.3120    4.9340   52.5300 C.2    56  GLN56       0.2608
     33  OE1       17.1920    4.3810   51.8830 O.2    56  GLN56      -0.2717
     34  NE2       16.2300    4.8240   53.8470 N.am   56  GLN56      -0.0878
     35  N         16.6860   10.0960   50.9880 N.am   57  CYS57      -0.1970
     36  CA        17.2590   11.2150   50.2350 C.3    57  CYS57       0.1712
     37  C         16.3460   12.4140   50.1450 C.2    57  CYS57       0.2296
     38  O         15.1250   12.2800   50.2890 O.2    57  CYS57      -0.2864
     39  CB        17.6910   10.8040   48.8140 C.3    57  CYS57       0.0983
     40  SG        16.5280    9.8890   47.7990 S.3    57  CYS57      -0.0798
     41  N         26.2200   12.7260   49.1500 N.3    65  TYR65      -0.1227
     42  CA        26.3120   11.2680   49.3060 C.3    65  TYR65       0.1736
     43  C         26.5120   10.5260   47.9790 C.2    65  TYR65       0.2595
     44  O         27.3960    9.6160   47.9090 O.2    65  TYR65      -0.2718
     45  CB        25.1020   10.7120   50.0650 C.3    65  TYR65       0.0548
     46  CG        24.9980    9.1890   50.1330 C.ar   65  TYR65      -0.0200
     47  CD1       25.5480    8.4800   51.2000 C.ar   65  TYR65      -0.0009
     48  CD2       24.3270    8.4750   49.1550 C.ar   65  TYR65      -0.0009
     49  CE1       25.4340    7.0680   51.2910 C.ar   65  TYR65       0.0417
     50  CE2       24.2170    7.0950   49.2190 C.ar   65  TYR65       0.0417
     51  CZ        24.7610    6.3850   50.3040 C.ar   65  TYR65       0.1957
     52  OH        24.6250    5.0080   50.3780 O.3    65  TYR65      -0.2866
     53  N         25.7160   10.9180   46.9610 N.am   66  GLN66      -0.1979
     54  CA        25.7140   10.2690   45.6170 C.3    66  GLN66       0.1601
     55  C         27.0960   10.4140   44.9700 C.2    66  GLN66       0.2287
     56  O         27.6940    9.4570   44.5150 O.2    66  GLN66      -0.2864
     57  CB        24.6280   10.8630   44.6850 C.3    66  GLN66       0.0394
     58  CG        23.2870   10.0240   44.5770 C.3    66  GLN66       0.0908
     59  CD        22.7140    9.5860   45.9170 C.2    66  GLN66       0.2608
     60  OE1       22.6020    8.3830   46.1990 O.2    66  GLN66      -0.2717
     61  NE2       22.3360   10.5590   46.7550 N.am   66  GLN66      -0.0878
     62  N         24.6260   -2.3290   44.4160 N.3    86  ILE86      -0.1231
     63  CA        23.5850   -2.9830   45.2090 C.3    86  ILE86       0.1692
     64  C         22.7070   -1.8920   45.8440 C.2    86  ILE86       0.2593
     65  O         23.2290   -0.9840   46.5020 O.2    86  ILE86      -0.2718
     66  CB        24.2220   -3.9410   46.2980 C.3    86  ILE86       0.0266
     67  CG1       25.1970   -4.9510   45.6390 C.3    86  ILE86       0.0019
     68  CG2       23.1350   -4.6330   47.1820 C.3    86  ILE86       0.0020
     69  CD1       24.5460   -5.9300   44.5940 C.3    86  ILE86       0.0001
     70  N         21.3870   -1.9960   45.6480 N.am   87  GLY87      -0.1942
     71  CA        20.4400   -0.9980   46.1140 C.3    87  GLY87       0.2014
     72  C         20.2750    0.0980   45.0830 C.2    87  GLY87       0.2639
     73  O         20.1610   -0.1650   43.8920 O.2    87  GLY87      -0.2714
     74  N         20.2960    1.3410   45.5170 N.am   88  GLY88      -0.1939
     75  CA        20.3720    2.4080   44.5280 C.3    88  GLY88       0.2014
     76  C         19.0750    2.7350   43.8150 C.2    88  GLY88       0.2639
     77  O         19.0950    3.3370   42.7430 O.2    88  GLY88      -0.2714
     78  N         17.9460    2.3540   44.4160 N.am   89  GLY89      -0.1939
     79  CA        16.6460    2.4420   43.7370 C.3    89  GLY89       0.2014
     80  C         16.3320    3.8060   43.1540 C.2    89  GLY89       0.2638
     81  O         15.6210    3.9170   42.1530 O.2    89  GLY89      -0.2714
     82  N         16.8440    4.8590   43.7770 N.am   90  ASP90      -0.1971
     83  CA        16.5170    6.2170   43.2970 C.3    90  ASP90       0.1709
     84  C         17.2410    6.5450   41.9910 C.2    90  ASP90       0.2293
     85  O         16.8170    7.4370   41.2870 O.2    90  ASP90      -0.2864
     86  CB        16.7880    7.2730   44.3680 C.3    90  ASP90       0.1436
     87  CG        18.1870    7.1640   44.9180 C.2    90  ASP90       0.3671
     88  OD1       19.1680    7.3140   44.1560 O.co2  90  ASP90      -0.2456
     89  OD2       18.3060    6.8740   46.1070 O.co2  90  ASP90      -0.2456
     90  N         21.4870   -4.1030   41.1600 N.3   109  CYS109     -0.1221
     91  CA        20.5930   -5.0370   41.7940 C.3   109  CYS109      0.1808
     92  C         19.7730   -4.3560   42.9170 C.2   109  CYS109      0.2601
     93  O         20.2580   -4.1480   44.0530 O.2   109  CYS109     -0.2717
     94  CB        21.3330   -6.3040   42.2880 C.3   109  CYS109      0.0970
     95  SG        20.2100   -7.6640   42.6940 S.3   109  CYS109     -0.0800
     96  N         18.5350   -4.0020   42.5660 N.am  110  GLU110     -0.1965
     97  CA        17.5420   -3.4560   43.4910 C.3   110  GLU110      0.1733
     98  C         16.4790   -4.5460   43.8040 C.2   110  GLU110      0.2616
     99  O         16.0760   -5.2620   42.9190 O.2   110  GLU110     -0.2715
    100  CB        16.8830   -2.2340   42.8330 C.3   110  GLU110      0.0429
    101  CG        15.5980   -1.6740   43.5370 C.3   110  GLU110      0.1163
    102  CD        15.8710   -1.1940   44.9580 C.2   110  GLU110      0.3649
    103  OE1       16.7770   -0.3280   45.1310 O.co2 110  GLU110     -0.2457
    104  OE2       15.2160   -1.7200   45.8890 O.co2 110  GLU110     -0.2457
    105  N         16.0550   -4.6600   45.0620 N.am  111  ILE111     -0.1963
    106  CA        15.1170   -5.6760   45.5300 C.3   111  ILE111      0.1727
    107  C         13.6710   -5.2320   45.2540 C.2   111  ILE111      0.2616
    108  O         12.8170   -6.0410   45.0480 O.2   111  ILE111     -0.2715
    109  CB        15.3040   -5.9750   47.0670 C.3   111  ILE111      0.0290
    110  CG1       14.5820   -7.2440   47.5020 C.3   111  ILE111      0.0022
    111  CG2       14.8280   -4.8000   47.9560 C.3   111  ILE111      0.0023
    112  CD1       15.2250   -7.9640   48.6640 C.3   111  ILE111      0.0001
    113  N         13.4520   -3.9230   45.2590 N.am  112  ASP112     -0.1971
    114  CA        12.1080   -3.3500   45.3160 C.3   112  ASP112      0.1709
    115  C         11.7910   -2.4620   44.0860 C.2   112  ASP112      0.2293
    116  O         12.1100   -1.2720   44.0850 O.2   112  ASP112     -0.2864
    117  CB        11.9480   -2.5530   46.6330 C.3   112  ASP112      0.1436
    118  CG        10.5040   -2.2780   46.9570 C.2   112  ASP112      0.3671
    119  OD1        9.6720   -2.4690   46.0650 O.co2 112  ASP112     -0.2456
    120  OD2       10.1840   -1.8710   48.0850 O.co2 112  ASP112     -0.2456
    121  N         10.2320    1.0330   44.5890 N.3   115  VAL115     -0.1245
    122  CA        11.1370    2.1640   44.8490 C.3   115  VAL115      0.1561
    123  C         11.5740    2.7920   43.5250 C.2   115  VAL115      0.2260
    124  O         11.6050    4.0340   43.4020 O.2   115  VAL115     -0.2867
    125  CB        12.3860    1.7590   45.6810 C.3   115  VAL115      0.0252
    126  CG1       13.3770    2.9260   45.7700 C.3   115  VAL115      0.0019
    127  CG2       11.9680    1.3000   47.0810 C.3   115  VAL115      0.0019
    128  N         16.3080   -8.3180   42.8230 N.3   140  GLY140     -0.1210
    129  CA        16.4940   -9.3090   43.8520 C.3   140  GLY140      0.1956
    130  C         17.2520   -8.8220   45.0490 C.2   140  GLY140      0.2612
    131  O         17.6720   -7.6480   45.1050 O.2   140  GLY140     -0.2717
    132  N         17.4010   -9.7330   46.0110 N.am  141  ASP141     -0.1959
    133  CA        18.2050   -9.4870   47.2070 C.3   141  ASP141      0.1840
    134  C         19.6690   -9.5160   46.7860 C.2   141  ASP141      0.2622
    135  O         20.1640  -10.5500   46.2770 O.2   141  ASP141     -0.2715
    136  CB        17.8900  -10.5160   48.3210 C.3   141  ASP141      0.1450
    137  CG        18.9500  -10.5330   49.4440 C.2   141  ASP141      0.3671
    138  OD1       19.5190   -9.4720   49.7700 O.co2 141  ASP141     -0.2456
    139  OD2       19.2380  -11.6230   49.9750 O.co2 141  ASP141     -0.2456
    140  N         20.3390   -8.3690   46.9500 N.am  142  GLY142     -0.1954
    141  CA        21.7440   -8.2290   46.6010 C.3   142  GLY142      0.1869
    142  C         22.6810   -9.2140   47.2910 C.2   142  GLY142      0.2309
    143  O         23.7550   -9.4970   46.7590 O.2   142  GLY142     -0.2863
    144  N         24.7810    0.9290   48.0450 N.3   159  ASP159     -0.1225
    145  CA        23.9320    2.0470   48.4490 C.3   159  ASP159      0.1805
    146  C         22.6750    1.4820   49.1600 C.2   159  ASP159      0.2598
    147  O         21.5830    1.3190   48.5550 O.2   159  ASP159     -0.2718
    148  CB        23.5820    2.8500   47.2070 C.3   159  ASP159      0.1424
    149  CG        22.6140    3.9680   47.4700 C.2   159  ASP159      0.3668
    150  OD1       22.5600    4.4730   48.6150 O.co2 159  ASP159     -0.2456
    151  OD2       21.9050    4.3490   46.5090 O.co2 159  ASP159     -0.2456
    152  N         22.8320    1.2010   50.4510 N.am  160  SER160     -0.1938
    153  CA        21.8640    0.3730   51.1630 C.3   160  SER160      0.2055
    154  C         20.7430    1.1360   51.8700 C.2   160  SER160      0.2643
    155  O         20.9300    2.2760   52.3280 O.2   160  SER160     -0.2714
    156  CB        22.5820   -0.5410   52.1670 C.3   160  SER160      0.2130
    157  OG        23.1690    0.2190   53.2120 O.3   160  SER160     -0.2179
    158  N         19.5790    0.4800   51.9440 N.am  161  SER161     -0.1949
    159  CA        18.4700    0.8760   52.8100 C.3   161  SER161      0.1924
    160  C         18.9390    0.6620   54.2690 C.2   161  SER161      0.2314
    161  O         20.1370    0.4550   54.5110 O.2   161  SER161     -0.2863
    162  CB        17.2390    0.0250   52.4400 C.3   161  SER161      0.2116
    163  OG        16.0370    0.4610   53.0490 O.3   161  SER161     -0.2180
    164  N         14.4580   -4.8140   54.3380 N.3   166  PRO166     -0.2102
    165  CA        15.2190   -5.6720   53.4010 C.3   166  PRO166      0.1504
    166  C         16.7530   -5.5250   53.3810 C.2   166  PRO166      0.2575
    167  O         17.4420   -6.4180   52.8940 O.2   166  PRO166     -0.2718
    168  CB        14.6050   -5.3220   52.0360 C.3   166  PRO166      0.0282
    169  CG        13.9810   -3.9740   52.2320 C.3   166  PRO166      0.0208
    170  CD        13.4810   -3.9610   53.6340 C.3   166  PRO166      0.0893
    171  N         17.2960   -4.4310   53.9000 N.am  167  ALA167     -0.1980
    172  CA        18.7560   -4.2610   53.8630 C.3   167  ALA167      0.1597
    173  C         19.5120   -5.1070   54.9080 C.2   167  ALA167      0.2287
    174  O         20.7280   -5.1840   54.8670 O.2   167  ALA167     -0.2864
    175  CB        19.1390   -2.7950   53.9610 C.3   167  ALA167      0.0319
    176  N         19.9870   -8.2690   55.1900 N.3   169  SER169     -0.1202
    177  CA        20.8430   -9.2740   54.5260 C.3   169  SER169      0.2020
    178  C         22.2020   -8.7350   54.0650 C.2   169  SER169      0.2618
    179  O         23.2160   -9.4600   54.0590 O.2   169  SER169     -0.2717
    180  CB        20.0920   -9.9420   53.3680 C.3   169  SER169      0.2103
    181  OG        19.8870   -9.0480   52.3130 O.3   169  SER169     -0.2182
    182  N         22.2150   -7.4540   53.7160 N.am  170  LEU170     -0.1979
    183  CA        23.4300   -6.7310   53.3540 C.3   170  LEU170      0.1596
    184  C         24.3060   -6.3730   54.5670 C.2   170  LEU170      0.2287
    185  O         25.3960   -5.8130   54.4120 O.2   170  LEU170     -0.2864
    186  CB        23.0600   -5.4750   52.5530 C.3   170  LEU170      0.0297
    187  CG        22.1330   -5.6850   51.3450 C.3   170  LEU170      0.0022
    188  CD1       21.6900   -4.3650   50.7800 C.3   170  LEU170      0.0001
    189  CD2       22.7840   -6.5390   50.2690 C.3   170  LEU170      0.0001
    190  N         27.9700    1.9120   52.1610 N.3   192  GLN192     -0.1245
    191  CA        27.4880    2.8150   53.1620 C.3   192  GLN192      0.1566
    192  C         27.9450    2.3080   54.5270 C.2   192  GLN192      0.2260
    193  O         27.7230    1.1440   54.8920 O.2   192  GLN192     -0.2867
    194  CB        25.9630    2.9840   53.0980 C.3   192  GLN192      0.0367
    195  CG        25.4090    3.6190   54.3460 C.3   192  GLN192      0.0905
    196  CD        23.9530    3.9750   54.2310 C.2   192  GLN192      0.2608
    197  OE1       23.5160    4.5120   53.2090 O.2   192  GLN192     -0.2717
    198  NE2       23.1880    3.7080   55.2960 N.am  192  GLN192     -0.0878
    199  N         21.0380   13.2690   56.7530 N.3   227  TYR227     -0.1241
    200  CA        21.3060   12.0070   57.4800 C.3   227  TYR227      0.1605
    201  C         21.5110   12.2710   58.9740 C.2   227  TYR227      0.2264
    202  O         21.8420   13.3780   59.3550 O.2   227  TYR227     -0.2867
    203  CB        22.4540   11.1840   56.8880 C.3   227  TYR227      0.0534
    204  CG        22.1210   10.5750   55.5390 C.ar  227  TYR227     -0.0201
    205  CD1       20.7890   10.2530   55.1930 C.ar  227  TYR227     -0.0009
    206  CD2       23.1140   10.2860   54.6320 C.ar  227  TYR227     -0.0009
    207  CE1       20.4830    9.6970   53.9730 C.ar  227  TYR227      0.0417
    208  CE2       22.8140    9.7510   53.3790 C.ar  227  TYR227      0.0417
    209  CZ        21.5120    9.4410   53.0620 C.ar  227  TYR227      0.1957
    210  OH        21.2250    8.8850   51.8210 O.3   227  TYR227     -0.2866
@<TRIPOS>BOND
     1    90    91    1
     2    85    84    2
     3    91    94    1
     4    91    92    1
     5    84    83    1
     6    81    80    2
     7    94    95    1
     8    96    92   am
     9    96    97    1
    10    77    76    2
    11   128   129    1
    12   100    97    1
    13   100   101    1
    14    92    93    2
    15    99    98    2
    16    80    79    1
    17    80    82   am
    18    83    82    1
    19    83    86    1
    20   124   123    2
    21    97    98    1
    22   123   122    1
    23   101   102    1
    24    79    78    1
    25    98   105   am
    26    76    78   am
    27    76    75    1
    28   129   130    1
    29    73    72    2
    30   116   115    2
    31   115   114    1
    32    88    87   ar
    33    86    87    1
    34    62    63    1
    35    56    55    2
    36    75    74    1
    37    58    57    1
    38    58    59    1
    39   121   122    1
    40    69    67    1
    41    57    54    1
    42   122   125    1
    43    87    89   ar
    44   102   103   ar
    45   102   104   ar
    46    55    54    1
    47   108   107    2
    48   130   131    2
    49   130   132   am
    50   105   106    1
    51    72    74   am
    52    72    71    1
    53    63    64    1
    54    63    66    1
    55   107   113   am
    56   107   106    1
    57   113   114    1
    58   114   117    1
    59   106   109    1
    60    54    53    1
    61    67    66    1
    62    70    64   am
    63    70    71    1
    64   125   126    1
    65   125   127    1
    66    64    65    2
    67    59    60    2
    68    59    61   am
    69   132   133    1
    70   119   118   ar
    71   135   134    2
    72    66    68    1
    73   151   149   ar
    74   141   140    1
    75   141   142    1
    76   117   118    1
    77   143   142    2
    78   134   140   am
    79   134   133    1
    80   118   120   ar
    81    53    43   am
    82   109   110    1
    83   109   111    1
    84   133   136    1
    85   148   149    1
    86   148   145    1
    87   149   150   ar
    88   110   112    1
    89    40    39    1
    90    44    43    2
    91    17    15    1
    92    43    42    1
    93   144   145    1
    94   136   137    1
    95   145   146    1
    96   147   146    2
    97    16    15    1
    98    39    36    1
    99    14    15    1
   100    14    11    1
   101    41    42    1
   102    48    50   ar
   103    48    46   ar
   104   146   152   am
   105    50    51   ar
   106    42    45    1
   107   137   138   ar
   108   137   139   ar
   109     9     7   am
   110    10    11    1
   111    11    12    1
   112    45    46    1
   113    46    47   ar
   114    37    36    1
   115    37    38    2
   116    36    35    1
   117   189   187    1
   118    51    52    1
   119    51    49   ar
   120   152   153    1
   121    24    23    1
   122    25    23    1
   123   188   187    1
   124     7     6    1
   125     7     8    2
   126    35    28   am
   127    30    31    1
   128    30    27    1
   129    23    22    1
   130   153   154    1
   131   153   156    1
   132    47    49   ar
   133    29    28    2
   134     6     5    1
   135   187   186    1
   136    12    13    2
   137    28    27    1
   138     4     3    2
   139   210   209    1
   140    31    32    1
   141   154   158   am
   142   154   155    2
   143    33    32    2
   144   158   159    1
   145   168   169    1
   146   168   165    1
   147     1     2    1
   148    27    26    1
   149   190   191    1
   150   156   157    1
   151   169   170    1
   152   181   180    1
   153   162   159    1
   154   162   163    1
   155    32    34   am
   156   186   183    1
   157    22    19    1
   158     5     2    1
   159     3     2    1
   160   159   160    1
   161   167   166    2
   162   209   208   ar
   163   209   207   ar
   164   194   191    1
   165   194   195    1
   166   191   192    1
   167   197   196    2
   168   183   182    1
   169   183   184    1
   170   180   177    1
   171   208   206   ar
   172   166   165    1
   173   166   171   am
   174   165   164    1
   175    19    18    1
   176    19    20    1
   177   170   164    1
   178   182   178   am
   179   172   171    1
   180   172   175    1
   181   172   173    1
   182   207   205   ar
   183   179   178    2
   184   178   177    1
   185   196   195    1
   186   196   198   am
   187   160   161    2
   188   185   184    2
   189   177   176    1
   190   192   193    2
   191   206   204   ar
   192   174   173    2
   193    20    21    2
   194   205   204   ar
   195   204   203    1
   196   199   200    1
   197   203   200    1
   198   200   201    1
   199   201   202    2
