@<TRIPOS>MOLECULE
tmp/2o0uA00.pdb
 167 152 0 0 0
SMALL
GASTEIGER

@<TRIPOS>ATOM
      1  N         28.3750    6.9680   35.8770 N.3    25  ILE25      -0.1231
      2  CA        27.7300    6.6770   34.5940 C.3    25  ILE25       0.1692
      3  C         28.3300    7.6120   33.5720 C.2    25  ILE25       0.2592
      4  O         28.9190    7.1710   32.5900 O.2    25  ILE25      -0.2718
      5  CB        26.2660    7.0700   34.5800 C.3    25  ILE25       0.0266
      6  CG1       25.3840    5.9390   35.0940 C.3    25  ILE25       0.0019
      7  CG2       25.8930    7.5120   33.1680 C.3    25  ILE25       0.0020
      8  CD1       23.9330    6.2950   35.0950 C.3    25  ILE25       0.0001
      9  N         28.1730    8.9140   33.7940 N.am   26  GLY26      -0.1957
     10  CA        28.7340    9.8720   32.8560 C.3    26  GLY26       0.1869
     11  C         28.5410   11.3190   33.2420 C.2    26  GLY26       0.2309
     12  O         28.1900   11.6290   34.3910 O.2    26  GLY26      -0.2863
     13  N         25.0060   19.4050   32.2530 N.3    30  GLN30      -0.1245
     14  CA        24.0060   19.7610   33.2760 C.3    30  GLN30       0.1566
     15  C         24.4080   19.3560   34.6950 C.2    30  GLN30       0.2260
     16  O         23.9980   19.9950   35.6840 O.2    30  GLN30      -0.2867
     17  CB        22.6680   19.0840   32.9390 C.3    30  GLN30       0.0367
     18  CG        22.4460   18.7810   31.4330 C.3    30  GLN30       0.0905
     19  CD        23.1010   17.4640   30.9520 C.2    30  GLN30       0.2608
     20  OE1       23.3440   16.5430   31.7520 O.2    30  GLN30      -0.2717
     21  NE2       23.3630   17.3710   29.6410 N.am   30  GLN30      -0.0878
     22  N         26.6580   12.3240   36.8480 N.3    33  VAL33      -0.1245
     23  CA        25.6350   11.2890   36.9030 C.3    33  VAL33       0.1561
     24  C         26.2420    9.9760   37.3830 C.2    33  VAL33       0.2260
     25  O         27.2820    9.5600   36.8530 O.2    33  VAL33      -0.2867
     26  CB        24.9610   11.0430   35.5190 C.3    33  VAL33       0.0252
     27  CG1       23.8400   10.0680   35.6800 C.3    33  VAL33       0.0019
     28  CG2       24.4550   12.3350   34.9030 C.3    33  VAL33       0.0019
     29  N         19.6720    5.7840   38.4710 N.3    46  ALA46      -0.1245
     30  CA        20.7260    6.7300   38.0860 C.3    46  ALA46       0.1562
     31  C         20.4130    7.9950   38.8940 C.2    46  ALA46       0.2260
     32  O         19.2460    8.3230   39.0910 O.2    46  ALA46      -0.2867
     33  CB        20.6990    6.9990   36.5820 C.3    46  ALA46       0.0290
     34  N         21.5510   12.1010   39.1850 N.3    48  LYS48      -0.1245
     35  CA        22.2250   13.2740   38.6110 C.3    48  LYS48       0.1561
     36  C         22.3500   14.3410   39.6900 C.2    48  LYS48       0.2260
     37  O         21.3560   14.7100   40.3100 O.2    48  LYS48      -0.2867
     38  CB        21.4170   13.8680   37.4540 C.3    48  LYS48       0.0271
     39  CG        22.0400   15.0690   36.7260 C.3    48  LYS48       0.0035
     40  CD        21.2730   15.2940   35.4710 C.3    48  LYS48       0.0206
     41  CE        21.8060   16.3380   34.6440 C.3    48  LYS48       0.1093
     42  NZ        21.1940   16.1420   33.2690 N.3    48  LYS48      -0.1314
     43  N         13.1380   22.1850   34.1660 N.3    66  GLU66      -0.1245
     44  CA        13.2260   20.7320   34.0130 C.3    66  GLU66       0.1567
     45  C         12.5940   20.0820   35.2390 C.2    66  GLU66       0.2260
     46  O         11.9790   19.0490   35.1200 O.2    66  GLU66      -0.2867
     47  CB        14.6790   20.2500   33.7290 C.3    66  GLU66       0.0388
     48  CG        15.3840   21.0310   32.5500 C.3    66  GLU66       0.1160
     49  CD        15.3930   20.3800   31.1470 C.2    66  GLU66       0.3649
     50  OE1       15.4180   19.1550   31.0410 O.co2  66  GLU66      -0.2457
     51  OE2       15.4150   21.1040   30.1180 O.co2  66  GLU66      -0.2457
     52  N          9.1970   17.8840   34.5320 N.3    70  MET70      -0.1245
     53  CA         9.2730   16.4640   34.8290 C.3    70  MET70       0.1570
     54  C          8.0450   16.0620   35.6070 C.2    70  MET70       0.2261
     55  O          7.2080   15.3170   35.0920 O.2    70  MET70      -0.2867
     56  CB        10.5600   16.0800   35.5880 C.3    70  MET70       0.0387
     57  CG        11.6300   15.3860   34.7230 C.3    70  MET70       0.0595
     58  SD        13.3900   15.5130   35.2440 S.3    70  MET70      -0.1393
     59  CE        13.9860   16.9490   34.3540 C.3    70  MET70       0.0692
     60  N         11.8010   11.0940   30.3580 N.3    79  ILE79      -0.1245
     61  CA        12.2280   10.9080   31.7760 C.3    79  ILE79       0.1561
     62  C         11.0560   11.1440   32.7330 C.2    79  ILE79       0.2260
     63  O         10.3100   12.1340   32.6210 O.2    79  ILE79      -0.2867
     64  CB        13.2090   11.9900   32.4100 C.3    79  ILE79       0.0252
     65  CG1       13.5440   13.1160   31.4870 C.3    79  ILE79       0.0019
     66  CG2       14.3790   11.3520   33.1650 C.3    79  ILE79       0.0019
     67  CD1       12.3320   13.9320   31.1010 C.3    79  ILE79       0.0001
     68  N         11.0060   11.0450   37.1890 N.3    81  LEU81      -0.1245
     69  CA        11.8170   10.9500   38.3680 C.3    81  LEU81       0.1561
     70  C         11.2280   10.0250   39.4100 C.2    81  LEU81       0.2260
     71  O         10.0050   10.0720   39.7000 O.2    81  LEU81      -0.2867
     72  CB        11.9640   12.3340   38.9630 C.3    81  LEU81       0.0270
     73  CG        12.7130   13.3510   38.0860 C.3    81  LEU81       0.0019
     74  CD1       13.1550   14.5780   38.9250 C.3    81  LEU81       0.0001
     75  CD2       13.9050   12.7480   37.3540 C.3    81  LEU81       0.0001
     76  N         18.6240   14.3620   41.4440 N.3    99  LEU99      -0.1245
     77  CA        17.5360   13.8270   40.7000 C.3    99  LEU99       0.1561
     78  C         17.7980   12.3330   40.4950 C.2    99  LEU99       0.2260
     79  O         18.8680   11.9470   40.0660 O.2    99  LEU99      -0.2867
     80  CB        17.5190   14.5600   39.3670 C.3    99  LEU99       0.0270
     81  CG        17.4320   16.0910   39.3650 C.3    99  LEU99       0.0019
     82  CD1       17.4700   16.6030   37.9560 C.3    99  LEU99       0.0001
     83  CD2       16.1270   16.5000   39.9720 C.3    99  LEU99       0.0001
     84  N         16.3980    8.6500   38.7650 N.3   101  MET101     -0.1230
     85  CA        15.5960    8.0020   37.7490 C.3   101  MET101      0.1702
     86  C         15.9310    6.5230   37.7180 C.2   101  MET101      0.2592
     87  O         16.9170    6.1230   38.2880 O.2   101  MET101     -0.2718
     88  CB        15.8710    8.6060   36.3930 C.3   101  MET101      0.0401
     89  CG        17.1580    8.2290   35.7740 C.3   101  MET101      0.0596
     90  SD        17.3300    8.8640   34.0810 S.3   101  MET101     -0.1393
     91  CE        16.2780    7.6610   33.2870 C.3   101  MET101      0.0692
     92  N         15.1190    5.7070   37.0470 N.am  102  GLU102     -0.1966
     93  CA        15.4540    4.2850   36.8200 C.3   102  GLU102      0.1733
     94  C         16.6580    4.1510   35.9220 C.2   102  GLU102      0.2616
     95  O         16.7680    4.8550   34.9450 O.2   102  GLU102     -0.2715
     96  CB        14.2580    3.5470   36.1780 C.3   102  GLU102      0.0429
     97  CG        12.9200    3.7420   36.9470 C.3   102  GLU102      0.1163
     98  CD        12.4720    2.5640   37.8400 C.2   102  GLU102      0.3649
     99  OE1       13.3300    1.7240   38.1890 O.co2 102  GLU102     -0.2457
    100  OE2       11.2370    2.4870   38.2080 O.co2 102  GLU102     -0.2457
    101  N         17.5570    3.2190   36.2190 N.am  103  LEU103     -0.1963
    102  CA        18.7990    3.1200   35.4530 C.3   103  LEU103      0.1728
    103  C         18.5380    2.6340   34.0220 C.2   103  LEU103      0.2616
    104  O         17.9120    1.5840   33.8180 O.2   103  LEU103     -0.2715
    105  CB        19.7770    2.1740   36.1460 C.3   103  LEU103      0.0311
    106  CG        21.1890    2.0830   35.5980 C.3   103  LEU103      0.0022
    107  CD1       21.8480    3.4860   35.5350 C.3   103  LEU103      0.0001
    108  CD2       21.9490    1.0800   36.4550 C.3   103  LEU103      0.0001
    109  N         19.0090    3.4050   33.0370 N.am  104  MET104     -0.1963
    110  CA        19.0310    2.9880   31.6590 C.3   104  MET104      0.1736
    111  C         20.4650    2.5910   31.3310 C.2   104  MET104      0.2616
    112  O         21.3680    2.8200   32.1260 O.2   104  MET104     -0.2715
    113  CB        18.5930    4.1280   30.7570 C.3   104  MET104      0.0427
    114  CG        17.2650    4.7500   31.1320 C.3   104  MET104      0.0599
    115  SD        15.8480    3.7380   30.7050 S.3   104  MET104     -0.1393
    116  CE        15.5950    3.9310   28.9290 C.3   104  MET104      0.0692
    117  N         20.6680    1.9890   30.1720 N.am  105  ASP105     -0.1957
    118  CA        21.8640    1.1790   29.9550 C.3   105  ASP105      0.1840
    119  C         22.8730    1.9020   29.0690 C.2   105  ASP105      0.2622
    120  O         24.0190    1.8290   29.3110 O.2   105  ASP105     -0.2715
    121  CB        21.4410   -0.1610   29.3450 C.3   105  ASP105      0.1450
    122  CG        20.6170   -0.9960   30.3110 C.2   105  ASP105      0.3671
    123  OD1       20.8800   -0.9190   31.5210 O.co2 105  ASP105     -0.2456
    124  OD2       19.7030   -1.7060   29.8720 O.co2 105  ASP105     -0.2456
    125  N         22.3780    2.6400   28.0860 N.am  106  ALA106     -0.1963
    126  CA        23.1780    3.2710   27.0830 C.3   106  ALA106      0.1728
    127  C         22.5600    4.5870   26.6320 C.2   106  ALA106      0.2616
    128  O         21.3750    4.8710   26.7700 O.2   106  ALA106     -0.2715
    129  CB        23.3060    2.3380   25.8790 C.3   106  ALA106      0.0334
    130  N         23.4580    5.3640   26.0770 N.am  107  ASN107     -0.1972
    131  CA        23.2650    6.6000   25.2980 C.3   107  ASN107      0.1688
    132  C         22.8060    6.2400   23.8600 C.2   107  ASN107      0.2292
    133  O         23.0850    5.1630   23.3670 O.2   107  ASN107     -0.2864
    134  CB        24.7460    7.1040   25.2630 C.3   107  ASN107      0.1181
    135  CG        24.9040    8.4870   24.8020 C.2   107  ASN107      0.2629
    136  OD1       24.6960    8.7560   23.6260 O.2   107  ASN107     -0.2716
    137  ND2       25.3570    9.3900   25.7000 N.am  107  ASN107     -0.0877
    138  N         25.9220    5.4150   21.5680 N.3   110  GLN110     -0.1245
    139  CA        26.5780    4.0990   21.4820 C.3   110  GLN110      0.1566
    140  C         25.7590    3.2130   20.5760 C.2   110  GLN110      0.2260
    141  O         26.3070    2.4300   19.8530 O.2   110  GLN110     -0.2867
    142  CB        26.7950    3.4320   22.8240 C.3   110  GLN110      0.0367
    143  CG        27.3190    4.3320   23.9350 C.3   110  GLN110      0.0905
    144  CD        26.8180    3.8290   25.2910 C.2   110  GLN110      0.2608
    145  OE1       26.1380    4.5550   26.0640 O.2   110  GLN110     -0.2717
    146  NE2       27.1080    2.5470   25.5590 N.am  110  GLN110     -0.0878
    147  N         22.9270   12.4300   22.6360 N.3   148  SER148     -0.1217
    148  CA        23.5230   12.4480   23.9330 C.3   148  SER148      0.1889
    149  C         22.4790   12.6020   25.0390 C.2   148  SER148      0.2288
    150  O         22.7250   12.2210   26.1550 O.2   148  SER148     -0.2866
    151  CB        24.5440   13.5950   24.0150 C.3   148  SER148      0.2089
    152  OG        23.8190   14.8200   24.0030 O.3   148  SER148     -0.2183
    153  N         18.3100    8.1890   26.0440 N.3   151  VAL151     -0.1245
    154  CA        18.9050    6.9430   26.6200 C.3   151  VAL151      0.1561
    155  C         18.0380    5.7210   26.2620 C.2   151  VAL151      0.2260
    156  O         16.8040    5.8330   25.9910 O.2   151  VAL151     -0.2867
    157  CB        19.1330    6.9650   28.1520 C.3   151  VAL151      0.0252
    158  CG1       20.3140    7.8220   28.5170 C.3   151  VAL151      0.0019
    159  CG2       17.7860    7.3540   28.9710 C.3   151  VAL151      0.0019
    160  N         15.6290   12.6340   27.7350 N.3   161  LEU161     -0.1245
    161  CA        16.0000   13.1730   29.0540 C.3   161  LEU161      0.1561
    162  C         15.8920   14.6760   29.3100 C.2   161  LEU161      0.2260
    163  O         16.3410   15.1520   30.3680 O.2   161  LEU161     -0.2867
    164  CB        17.4650   12.8250   29.3560 C.3   161  LEU161      0.0270
    165  CG        17.9460   11.3950   29.4490 C.3   161  LEU161      0.0019
    166  CD1       19.5420   11.4290   29.7030 C.3   161  LEU161      0.0001
    167  CD2       17.2950   10.7050   30.5250 C.3   161  LEU161      0.0001
@<TRIPOS>BOND
     1   141   140    2
     2   140   139    1
     3   139   138    1
     4   139   142    1
     5   147   148    1
     6   142   143    1
     7   133   132    2
     8   136   135    2
     9   132   131    1
    10   148   151    1
    11   148   149    1
    12   143   144    1
    13   152   151    1
    14   135   134    1
    15   135   137   am
    16   149   150    2
    17   134   131    1
    18   144   146   am
    19   144   145    2
    20   131   130    1
    21   129   126    1
    22   156   155    2
    23   153   154    1
    24   130   127   am
    25   155   154    1
    26   154   157    1
    27   127   128    2
    28   127   126    1
    29   126   125    1
    30   160   161    1
    31   125   119   am
    32   157   158    1
    33   157   159    1
    34   116   115    1
    35   161   162    1
    36   161   164    1
    37   119   120    2
    38   119   118    1
    39   162   163    2
    40   121   118    1
    41   121   122    1
    42   164   165    1
    43   165   166    1
    44   165   167    1
    45    21    19   am
    46   124   122   ar
    47   118   117    1
    48    51    49   ar
    49   117   111   am
    50   122   123   ar
    51    60    61    1
    52   115   114    1
    53   113   114    1
    54   113   110    1
    55    19    18    1
    56    19    20    2
    57    50    49   ar
    58    67    65    1
    59    49    48    1
    60   111   110    1
    61   111   112    2
    62    18    17    1
    63    65    64    1
    64   110   109    1
    65    61    64    1
    66    61    62    1
    67    13    14    1
    68    64    66    1
    69    48    47    1
    70     4     3    2
    71    63    62    2
    72    10    11    1
    73    10     9    1
    74    17    14    1
    75   109   103   am
    76     7     5    1
    77    11    12    2
    78    42    41    1
    79    14    15    1
    80    91    90    1
    81     3     9   am
    82     3     2    1
    83    47    44    1
    84   104   103    2
    85    44    43    1
    86    44    45    1
    87   103   102    1
    88    90    89    1
    89    59    58    1
    90    52    53    1
    91     5     2    1
    92     5     6    1
    93     2     1    1
    94    41    40    1
    95    15    16    2
    96    57    58    1
    97    57    56    1
    98    53    56    1
    99    53    54    1
   100    28    26    1
   101    95    94    2
   102    55    54    2
   103     6     8    1
   104    46    45    2
   105   102   105    1
   106   102   101    1
   107    40    39    1
   108    26    27    1
   109    26    23    1
   110   107   106    1
   111   106   105    1
   112   106   108    1
   113    89    88    1
   114    94   101   am
   115    94    93    1
   116    96    93    1
   117    96    97    1
   118    88    85    1
   119    33    30    1
   120    39    38    1
   121    93    92    1
   122    22    23    1
   123    25    24    2
   124    23    24    1
   125    97    98    1
   126    92    86   am
   127    68    69    1
   128    75    73    1
   129    38    35    1
   130    86    85    1
   131    86    87    2
   132    85    84    1
   133    98    99   ar
   134    98   100   ar
   135    82    81    1
   136    73    74    1
   137    73    72    1
   138    30    29    1
   139    30    31    1
   140    69    72    1
   141    69    70    1
   142    35    34    1
   143    35    36    1
   144    31    32    2
   145    81    80    1
   146    81    83    1
   147    80    77    1
   148    70    71    2
   149    36    37    2
   150    79    78    2
   151    78    77    1
   152    77    76    1
