@<TRIPOS>MOLECULE
tmp/2o0xA00.pdb
 216 206 0 0 0
SMALL
GASTEIGER

@<TRIPOS>ATOM
      1  N         11.5700   28.4560   19.9970 N.3    23  LYS23      -0.1231
      2  CA        11.0430   28.0300   18.6840 C.3    23  LYS23       0.1693
      3  C         10.5900   29.1250   17.7380 C.2    23  LYS23       0.2592
      4  O         10.9610   29.1220   16.5500 O.2    23  LYS23      -0.2718
      5  CB         9.8330   27.1050   18.9330 C.3    23  LYS23       0.0285
      6  CG         9.1790   26.5790   17.6580 C.3    23  LYS23       0.0035
      7  CD         7.8020   27.1940   17.4460 C.3    23  LYS23       0.0206
      8  CE         6.7660   26.4870   18.3260 C.3    23  LYS23       0.1093
      9  NZ         5.5470   27.3520   18.5070 N.3    23  LYS23      -0.1314
     10  N          9.7490   30.0310   18.2330 N.am   24  SER24      -0.1952
     11  CA         9.2000   31.2010   17.5520 C.3    24  SER24       0.1924
     12  C         10.2730   32.0810   16.9160 C.2    24  SER24       0.2314
     13  O         10.2330   32.4570   15.7420 O.2    24  SER24      -0.2863
     14  CB         8.4010   32.0520   18.5570 C.3    24  SER24       0.2116
     15  OG         7.1500   31.4090   18.8520 O.3    24  SER24      -0.2180
     16  N         11.4410   32.3090   12.9580 N.3    28  ARG28      -0.1245
     17  CA        11.3430   33.6110   12.2510 C.3    28  ARG28       0.1563
     18  C         12.6770   33.9420   11.5930 C.2    28  ARG28       0.2260
     19  O         12.6660   34.4060   10.4540 O.2    28  ARG28      -0.2867
     20  CB        10.9390   34.7300   13.1950 C.3    28  ARG28       0.0307
     21  CG         9.4680   34.8970   13.4980 C.3    28  ARG28       0.0489
     22  CD         9.2520   35.6870   14.8050 C.3    28  ARG28       0.2205
     23  NE         7.8150   35.9280   14.9840 N.pl3  28  ARG28      -0.0865
     24  CZ         6.9720   34.9650   15.3560 C.cat  28  ARG28       0.5346
     25  NH1        7.4090   33.7330   15.5850 N.pl3  28  ARG28       0.1354
     26  NH2        5.6760   35.2100   15.5050 N.pl3  28  ARG28       0.1354
     27  N          9.9310   21.0350   15.1260 N.3    54  ASP54      -0.1239
     28  CA         9.3370   22.1930   14.4560 C.3    54  ASP54       0.1674
     29  C         10.3750   22.9590   13.6570 C.2    54  ASP54       0.2266
     30  O         10.0540   23.4080   12.5560 O.2    54  ASP54      -0.2867
     31  CB         8.6740   23.1420   15.4510 C.3    54  ASP54       0.1410
     32  CG         7.1790   22.9190   15.5630 C.2    54  ASP54       0.3668
     33  OD1        6.6980   21.8800   15.0560 O.co2  54  ASP54      -0.2456
     34  OD2        6.4910   23.7700   16.1640 O.co2  54  ASP54      -0.2456
     35  N          2.6370   24.9640   13.1640 N.3    96  GLY96      -0.1210
     36  CA         1.8480   26.0450   12.5550 C.3    96  GLY96       0.1956
     37  C          2.7070   27.0670   11.8390 C.2    96  GLY96       0.2612
     38  O          2.2870   27.6310   10.8220 O.2    96  GLY96      -0.2717
     39  N          3.9010   27.3190   12.3870 N.am   97  THR97      -0.1952
     40  CA         4.7810   28.3250   11.7860 C.3    97  THR97       0.1897
     41  C          5.1690   27.9350   10.3650 C.2    97  THR97       0.2313
     42  O          5.4090   28.7770    9.4790 O.2    97  THR97      -0.2863
     43  CB         6.0300   28.6010   12.6450 C.3    97  THR97       0.1794
     44  OG1        6.7300   27.3830   12.9570 O.3    97  THR97      -0.2208
     45  CG2        5.6430   29.2040   13.9970 C.3    97  THR97       0.0378
     46  N          1.8270   28.3010    8.2000 N.3   100  ARG100     -0.1231
     47  CA         1.4920   29.7010    8.0330 C.3   100  ARG100      0.1694
     48  C          2.6310   30.5620    7.4970 C.2   100  ARG100      0.2592
     49  O          2.2810   31.5580    6.8380 O.2   100  ARG100     -0.2718
     50  CB         1.0000   30.2870    9.3690 C.3   100  ARG100      0.0321
     51  CG        -0.4810   30.0130    9.6420 C.3   100  ARG100      0.0489
     52  CD        -0.6890   28.5880   10.0930 C.3   100  ARG100      0.2205
     53  NE        -1.9500   28.3150   10.7700 N.pl3 100  ARG100     -0.0865
     54  CZ        -2.1160   28.1670   12.0770 C.cat 100  ARG100      0.5346
     55  NH1       -1.1330   28.2760   12.9620 N.pl3 100  ARG100      0.1354
     56  NH2       -3.3250   27.9110   12.5690 N.pl3 100  ARG100      0.1354
     57  N          3.9250   30.2930    7.7270 N.am  101  PHE101     -0.1976
     58  CA         4.8950   31.3100    7.2820 C.3   101  PHE101      0.1639
     59  C          5.4150   31.0430    5.8790 C.2   101  PHE101      0.2290
     60  O          5.9040   31.9280    5.1830 O.2   101  PHE101     -0.2864
     61  CB         6.1070   31.4180    8.2230 C.3   101  PHE101      0.0560
     62  CG         5.8350   31.8650    9.6440 C.ar  101  PHE101     -0.0200
     63  CD1        4.5770   32.2800   10.0600 C.ar  101  PHE101     -0.0042
     64  CD2        6.8410   31.8710   10.6020 C.ar  101  PHE101     -0.0042
     65  CE1        4.3150   32.6710   11.3650 C.ar  101  PHE101     -0.0003
     66  CE2        6.5840   32.2590   11.9110 C.ar  101  PHE101     -0.0003
     67  CZ         5.3200   32.6650   12.3110 C.ar  101  PHE101     -0.0000
     68  N         -6.4760   22.2730   11.5470 N.3   124  ARG124     -0.1245
     69  CA        -6.0700   23.5750   12.0740 C.3   124  ARG124      0.1563
     70  C         -6.3430   24.7010   11.0820 C.2   124  ARG124      0.2260
     71  O         -6.1770   24.5040    9.8820 O.2   124  ARG124     -0.2867
     72  CB        -4.5770   23.5250   12.4390 C.3   124  ARG124      0.0307
     73  CG        -4.3140   22.7710   13.7330 C.3   124  ARG124      0.0489
     74  CD        -2.8510   22.8670   14.1400 C.3   124  ARG124      0.2205
     75  NE        -2.6050   24.1190   14.8540 N.pl3 124  ARG124     -0.0865
     76  CZ        -1.4050   24.4980   15.2820 C.cat 124  ARG124      0.5346
     77  NH1       -0.3300   23.7440   15.0860 N.pl3 124  ARG124      0.1354
     78  NH2       -1.3030   25.6610   15.9180 N.pl3 124  ARG124      0.1354
     79  N         -8.5810   33.5930   14.6660 N.3   166  ALA166     -0.1231
     80  CA        -8.2030   32.2050   14.9140 C.3   166  ALA166      0.1694
     81  C         -6.7250   31.9510   15.2000 C.2   166  ALA166      0.2593
     82  O         -6.4030   30.9620   15.8770 O.2   166  ALA166     -0.2718
     83  CB        -8.5460   31.3400   13.6990 C.3   166  ALA166      0.0304
     84  N         -5.8360   32.7800   14.6710 N.am  167  SER167     -0.1938
     85  CA        -4.4090   32.6390   14.8670 C.3   167  SER167      0.2055
     86  C         -3.6300   33.9170   14.5880 C.2   167  SER167      0.2644
     87  O         -3.7630   34.4410   13.4820 O.2   167  SER167     -0.2714
     88  CB        -3.7880   31.6030   13.9060 C.3   167  SER167      0.2130
     89  OG        -2.3860   31.4670   14.1980 O.3   167  SER167     -0.2179
     90  N         -2.7870   34.3740   15.5090 N.am  168  SER168     -0.1935
     91  CA        -1.9000   35.4720   15.1070 C.3   168  SER168      0.2055
     92  C         -0.9460   35.1460   13.9710 C.2   168  SER168      0.2642
     93  O         -0.4650   36.0620   13.2950 O.2   168  SER168     -0.2714
     94  CB        -1.0600   35.9050   16.3150 C.3   168  SER168      0.2130
     95  OG        -0.0520   34.9470   16.6070 O.3   168  SER168     -0.2179
     96  N         -0.5900   33.8890   13.7020 N.am  169  GLN169     -0.1976
     97  CA         0.3720   33.6070   12.6460 C.3   169  GLN169      0.1601
     98  C         -0.2010   33.9370   11.2830 C.2   169  GLN169      0.2287
     99  O          0.5130   33.9340   10.2730 O.2   169  GLN169     -0.2864
    100  CB         0.8010   32.1350   12.6820 C.3   169  GLN169      0.0394
    101  CG         1.2230   31.6490   14.0560 C.3   169  GLN169      0.0908
    102  CD         1.5960   30.1780   14.0810 C.2   169  GLN169      0.2608
    103  OE1        1.5130   29.4480   13.0930 O.2   169  GLN169     -0.2717
    104  NE2        2.0260   29.6850   15.2340 N.am  169  GLN169     -0.0878
    105  N          1.5730   37.3400   11.1140 N.3   172  SER172     -0.1217
    106  CA         3.0320   37.1980   11.0770 C.3   172  SER172      0.1889
    107  C          3.4730   36.6490    9.7260 C.2   172  SER172      0.2288
    108  O          4.4000   37.1810    9.1010 O.2   172  SER172     -0.2866
    109  CB         3.5730   36.3220   12.2130 C.3   172  SER172      0.2089
    110  OG         3.4400   36.9490   13.4920 O.3   172  SER172     -0.2183
    111  N         -5.5670   37.2510   19.1260 N.3   195  PRO195     -0.2102
    112  CA        -4.8270   36.6150   20.2250 C.3   195  PRO195      0.1504
    113  C         -3.3220   36.7940   20.0460 C.2   195  PRO195      0.2576
    114  O         -2.8780   37.0480   18.9180 O.2   195  PRO195     -0.2718
    115  CB        -5.2570   35.1540   20.0550 C.3   195  PRO195      0.0282
    116  CG        -5.3850   34.9870   18.5680 C.3   195  PRO195      0.0208
    117  CD        -5.9160   36.2990   18.0560 C.3   195  PRO195      0.0893
    118  N         -2.5440   36.6450   21.1170 N.am  196  SER196     -0.1953
    119  CA        -1.0950   36.5140   20.9970 C.3   196  SER196      0.1924
    120  C         -0.4260   37.7620   20.4390 C.2   196  SER196      0.2314
    121  O          0.5070   37.6780   19.6250 O.2   196  SER196     -0.2863
    122  CB        -0.7370   35.3310   20.0730 C.3   196  SER196      0.2116
    123  OG        -1.1680   34.1080   20.6380 O.3   196  SER196     -0.2180
    124  N          3.3740   37.8380   19.9030 N.3   199  HIS199     -0.1241
    125  CA         4.0670   37.1700   18.7890 C.3   199  HIS199      0.1621
    126  C          4.0000   37.9920   17.5090 C.2   199  HIS199      0.2264
    127  O          4.9060   37.8920   16.6780 O.2   199  HIS199     -0.2867
    128  CB         3.5140   35.7560   18.5190 C.3   199  HIS199      0.0745
    129  CG         4.1230   34.7930   19.4990 C.ar  199  HIS199      0.0817
    130  ND1        3.5840   34.5510   20.7460 N.ar  199  HIS199     -0.2268
    131  CD2        5.2460   34.0420   19.4070 C.ar  199  HIS199      0.1154
    132  CE1        4.3410   33.6740   21.3870 C.ar  199  HIS199      0.1986
    133  NE2        5.3540   33.3500   20.5860 N.ar  199  HIS199     -0.2212
    134  N         -1.4260   32.5220   25.2960 N.3   310  GLY310     -0.1210
    135  CA        -2.1620   31.2790   25.2780 C.3   310  GLY310      0.1956
    136  C         -1.3660   30.0030   25.3570 C.2   310  GLY310      0.2611
    137  O         -1.8930   29.0230   25.9010 O.2   310  GLY310     -0.2717
    138  N         -0.1380   29.9080   24.8560 N.am  311  GLU311     -0.1979
    139  CA         0.6040   28.6400   24.9290 C.3   311  GLU311      0.1602
    140  C          1.0450   28.3010   26.3490 C.2   311  GLU311      0.2287
    141  O          1.6200   27.2210   26.5740 O.2   311  GLU311     -0.2864
    142  CB         1.8050   28.6870   23.9660 C.3   311  GLU311      0.0415
    143  CG         2.8400   29.7150   24.4220 C.3   311  GLU311      0.1163
    144  CD         4.0100   29.9200   23.4840 C.2   311  GLU311      0.3649
    145  OE1        4.1900   29.1330   22.5230 O.co2 311  GLU311     -0.2457
    146  OE2        4.7810   30.8950   23.7000 O.co2 311  GLU311     -0.2457
    147  N         -9.3850   30.6150   21.2470 N.3   336  HIS336     -0.1241
    148  CA        -8.6500   30.1720   20.0500 C.3   336  HIS336      0.1621
    149  C         -7.8560   28.8980   20.3300 C.2   336  HIS336      0.2264
    150  O         -7.4070   28.2850   19.3550 O.2   336  HIS336     -0.2867
    151  CB        -7.7190   31.2670   19.5210 C.3   336  HIS336      0.0745
    152  CG        -6.6920   31.7240   20.5190 C.ar  336  HIS336      0.0817
    153  ND1       -7.0050   32.4070   21.6760 N.ar  336  HIS336     -0.2268
    154  CD2       -5.3470   31.5840   20.5440 C.ar  336  HIS336      0.1154
    155  CE1       -5.9070   32.6740   22.3670 C.ar  336  HIS336      0.1986
    156  NE2       -4.8790   32.1790   21.6920 N.ar  336  HIS336     -0.2212
    157  N         -5.6540   24.7480   18.4370 N.3   340  HIS340     -0.1226
    158  CA        -4.1950   24.5630   18.4350 C.3   340  HIS340      0.1752
    159  C         -3.8220   23.1410   18.0000 C.2   340  HIS340      0.2595
    160  O         -4.7000   22.4700   17.4420 O.2   340  HIS340     -0.2718
    161  CB        -3.6450   24.9080   19.8180 C.3   340  HIS340      0.0759
    162  CG        -3.2590   26.3490   20.0070 C.ar  340  HIS340      0.0818
    163  ND1       -2.6470   26.8290   21.1520 N.ar  340  HIS340     -0.2268
    164  CD2       -3.4100   27.4260   19.2020 C.ar  340  HIS340      0.1154
    165  CE1       -2.4260   28.1270   21.0360 C.ar  340  HIS340      0.1986
    166  NE2       -2.8850   28.5180   19.8560 N.ar  340  HIS340     -0.2212
    167  N         -2.5980   22.6850   18.2190 N.am  341  GLU341     -0.1979
    168  CA        -2.0410   21.3560   17.9930 C.3   341  GLU341      0.1602
    169  C         -3.1130   20.2650   18.0980 C.2   341  GLU341      0.2287
    170  O         -3.4120   19.4460   17.2400 O.2   341  GLU341     -0.2864
    171  CB        -0.9300   21.0670   19.0180 C.3   341  GLU341      0.0415
    172  CG         0.4710   21.5560   18.7560 C.3   341  GLU341      0.1163
    173  CD         0.7710   22.9960   19.1220 C.2   341  GLU341      0.3649
    174  OE1       -0.1290   23.8630   19.2430 O.co2 341  GLU341     -0.2457
    175  OE2        1.9760   23.3070   19.2970 O.co2 341  GLU341     -0.2457
    176  N         -6.8620   22.3120   22.9090 N.3   344  ARG344     -0.1245
    177  CA        -6.2520   22.2400   24.2230 C.3   344  ARG344      0.1563
    178  C         -7.2590   22.3810   25.3540 C.2   344  ARG344      0.2260
    179  O         -6.9550   21.7990   26.4140 O.2   344  ARG344     -0.2867
    180  CB        -5.1010   23.2710   24.3140 C.3   344  ARG344      0.0307
    181  CG        -3.8480   22.7510   23.6090 C.3   344  ARG344      0.0489
    182  CD        -2.7320   23.7740   23.5620 C.3   344  ARG344      0.2205
    183  NE        -1.4550   23.2580   23.0820 N.pl3 344  ARG344     -0.0865
    184  CZ        -0.4070   23.9820   22.7150 C.cat 344  ARG344      0.5346
    185  NH1       -0.4710   25.3130   22.7580 N.pl3 344  ARG344      0.1354
    186  NH2        0.7160   23.3960   22.2920 N.pl3 344  ARG344      0.1354
    187  N          3.3980   18.5490   22.5250 N.3   384  HIS384     -0.1226
    188  CA         4.5170   18.8250   23.4330 C.3   384  HIS384      0.1752
    189  C          4.0990   19.4330   24.7590 C.2   384  HIS384      0.2595
    190  O          4.6300   19.0550   25.8210 O.2   384  HIS384     -0.2718
    191  CB         5.5450   19.7280   22.7580 C.3   384  HIS384      0.0759
    192  CG         5.0160   20.9900   22.1530 C.ar  384  HIS384      0.0818
    193  ND1        5.7460   22.1650   22.2070 N.ar  384  HIS384     -0.2268
    194  CD2        3.8900   21.3100   21.4760 C.ar  384  HIS384      0.1154
    195  CE1        5.0820   23.1340   21.5950 C.ar  384  HIS384      0.1986
    196  NE2        3.9450   22.6410   21.1400 N.ar  384  HIS384     -0.2212
    197  N          3.1350   20.3520   24.7730 N.am  385  ARG385     -0.1980
    198  CA         2.7550   20.9880   26.0430 C.3   385  ARG385      0.1597
    199  C          1.7880   20.2160   26.9200 C.2   385  ARG385      0.2287
    200  O          1.8220   20.3200   28.1560 O.2   385  ARG385     -0.2864
    201  CB         2.1650   22.3870   25.7340 C.3   385  ARG385      0.0334
    202  CG         3.1150   23.1950   24.8620 C.3   385  ARG385      0.0492
    203  CD         3.1810   24.6730   25.2410 C.3   385  ARG385      0.2205
    204  NE         3.9260   25.4100   24.2000 N.pl3 385  ARG385     -0.0865
    205  CZ         5.2450   25.5820   24.2430 C.cat 385  ARG385      0.5346
    206  NH1        5.9070   25.0770   25.2720 N.pl3 385  ARG385      0.1354
    207  NH2        5.8940   26.2430   23.2990 N.pl3 385  ARG385      0.1354
    208  N          8.6920   18.2720   19.6150 N.3   410  LYS410     -0.1245
    209  CA         8.2830   19.4280   18.7910 C.3   410  LYS410      0.1561
    210  C          9.1600   20.6470   19.0640 C.2   410  LYS410      0.2260
    211  O          9.5420   21.3860   18.1590 O.2   410  LYS410     -0.2867
    212  CB         6.8180   19.7650   19.0750 C.3   410  LYS410      0.0271
    213  CG         6.1080   20.5530   17.9710 C.3   410  LYS410      0.0035
    214  CD         4.6190   20.6600   18.2940 C.3   410  LYS410      0.0206
    215  CE         3.8100   21.1930   17.1210 C.3   410  LYS410      0.1093
    216  NZ         3.7320   22.6840   17.1690 N.3   410  LYS410     -0.1314
@<TRIPOS>BOND
     1    60    59    2
     2    59    58    1
     3    49    48    2
     4    58    57    1
     5    58    61    1
     6    48    57   am
     7    48    47    1
     8    47    46    1
     9    47    50    1
    10    61    62    1
    11   108   107    2
    12    50    51    1
    13    42    41    2
    14    51    52    1
    15    62    63   ar
    16    62    64   ar
    17   107   106    1
    18    71    70    2
    19    63    65   ar
    20    52    53    1
    21    99    98    2
    22    41    40    1
    23    19    18    2
    24    64    66   ar
    25    53    54    2
    26    38    37    2
    27   106   105    1
    28   106   109    1
    29    70    69    1
    30    98    97    1
    31    65    67   ar
    32    68    69    1
    33    18    17    1
    34    40    39    1
    35    40    43    1
    36    37    39   am
    37    37    36    1
    38    66    67   ar
    39    69    72    1
    40    54    56    1
    41    54    55    1
    42   109   110    1
    43    17    16    1
    44    17    20    1
    45    72    73    1
    46    36    35    1
    47    30    29    2
    48    43    44    1
    49    43    45    1
    50    97   100    1
    51    97    96    1
    52   100   101    1
    53   103   102    2
    54    20    21    1
    55    93    92    2
    56    87    86    2
    57    21    22    1
    58    29    28    1
    59    83    80    1
    60    96    92   am
    61    73    74    1
    62    88    89    1
    63    88    85    1
    64    92    91    1
    65   101   102    1
    66   102   104   am
    67    74    75    1
    68    28    27    1
    69    28    31    1
    70    86    85    1
    71    86    90   am
    72    79    80    1
    73    84    85    1
    74    84    81   am
    75    22    23    1
    76    75    76    2
    77    80    81    1
    78    23    24    2
    79    33    32   ar
    80    77    76    1
    81    91    90    1
    82    91    94    1
    83    81    82    2
    84    76    78    1
    85    24    26    1
    86    24    25    1
    87    31    32    1
    88    32    34   ar
    89    13    12    2
    90    94    95    1
    91     4     3    2
    92   127   126    2
    93    12    11    1
    94   215   216    1
    95   215   214    1
    96   170   169    2
    97   160   159    2
    98     7     6    1
    99     7     8    1
   100   126   125    1
   101    11    10    1
   102    11    14    1
   103     6     5    1
   104     3    10   am
   105     3     2    1
   106   213   214    1
   107   213   212    1
   108   168   169    1
   109   168   167    1
   110   168   171    1
   111   159   167   am
   112   159   158    1
   113   117   116    1
   114   117   111    1
   115   211   210    2
   116     8     9    1
   117   158   157    1
   118   158   161    1
   119   128   125    1
   120   128   129    1
   121    14    15    1
   122   116   115    1
   123     2     5    1
   124     2     1    1
   125   172   171    1
   126   172   173    1
   127   125   124    1
   128   209   210    1
   129   209   212    1
   130   209   208    1
   131   114   113    2
   132   173   174   ar
   133   173   175   ar
   134   111   112    1
   135   164   166   ar
   136   164   162   ar
   137   150   149    2
   138   131   129   ar
   139   131   133   ar
   140   129   130   ar
   141   151   148    1
   142   151   152    1
   143   121   120    2
   144   161   162    1
   145   166   165   ar
   146   162   163   ar
   147   113   112    1
   148   113   118   am
   149   148   149    1
   150   148   147    1
   151   115   112    1
   152   122   123    1
   153   122   119    1
   154   120   119    1
   155   152   154   ar
   156   152   153   ar
   157   154   156   ar
   158   133   132   ar
   159   130   132   ar
   160   119   118    1
   161   165   163   ar
   162   196   194   ar
   163   196   195   ar
   164   194   192   ar
   165   195   193   ar
   166   153   155   ar
   167   156   155   ar
   168   192   193   ar
   169   192   191    1
   170   186   184    1
   171   145   144   ar
   172   187   188    1
   173   184   185    1
   174   184   183    2
   175   191   188    1
   176   176   177    1
   177   183   182    1
   178   207   205    1
   179   188   189    1
   180   144   146   ar
   181   144   143    1
   182   182   181    1
   183   181   180    1
   184   142   143    1
   185   142   139    1
   186   204   205    2
   187   204   203    1
   188   177   180    1
   189   177   178    1
   190   205   206    1
   191   189   197   am
   192   189   190    2
   193   197   198    1
   194   138   139    1
   195   138   136   am
   196   202   203    1
   197   202   201    1
   198   139   140    1
   199   135   134    1
   200   135   136    1
   201   178   179    2
   202   136   137    2
   203   201   198    1
   204   198   199    1
   205   140   141    2
   206   199   200    2
