@<TRIPOS>MOLECULE
tmp/2o0zA00.pdb
 204 195 0 0 0
SMALL
GASTEIGER

@<TRIPOS>ATOM
      1  N         11.3760   28.1890   19.8780 N.3    23  LYS23      -0.1231
      2  CA        10.8580   27.7030   18.6090 C.3    23  LYS23       0.1693
      3  C         10.3680   28.8550   17.7400 C.2    23  LYS23       0.2592
      4  O         10.6470   28.9350   16.5440 O.2    23  LYS23      -0.2718
      5  CB         9.7070   26.7190   18.8650 C.3    23  LYS23       0.0285
      6  CG         8.9680   26.2760   17.6130 C.3    23  LYS23       0.0035
      7  CD         7.6430   27.0170   17.4590 C.3    23  LYS23       0.0206
      8  CE         6.5080   26.2160   18.0780 C.3    23  LYS23       0.1093
      9  NZ         5.6140   27.0450   18.9360 N.3    23  LYS23      -0.1314
     10  N          9.6000   29.7380   18.3730 N.am   24  SER24      -0.1952
     11  CA         9.0160   30.8880   17.6700 C.3    24  SER24       0.1924
     12  C         10.1090   31.7320   17.0410 C.2    24  SER24       0.2314
     13  O         10.0560   32.0600   15.8630 O.2    24  SER24      -0.2863
     14  CB         8.1580   31.6990   18.6440 C.3    24  SER24       0.2116
     15  OG         7.0110   30.9260   19.0020 O.3    24  SER24      -0.2180
     16  N         11.2390   32.0730   13.0210 N.3    28  ARG28      -0.1245
     17  CA        11.1850   33.3950   12.3910 C.3    28  ARG28       0.1563
     18  C         12.5480   33.6920   11.7730 C.2    28  ARG28       0.2260
     19  O         12.6370   34.1800   10.6470 O.2    28  ARG28      -0.2867
     20  CB        10.8030   34.4930   13.3790 C.3    28  ARG28       0.0307
     21  CG         9.3050   34.6490   13.6240 C.3    28  ARG28       0.0489
     22  CD         9.0420   35.3370   14.9610 C.3    28  ARG28       0.2205
     23  NE         7.6100   35.4370   15.2250 N.pl3  28  ARG28      -0.0865
     24  CZ         6.8030   34.4590   15.6000 C.cat  28  ARG28       0.5346
     25  NH1        7.2400   33.2160   15.7880 N.pl3  28  ARG28       0.1354
     26  NH2        5.5160   34.7260   15.7930 N.pl3  28  ARG28       0.1354
     27  N          3.7910   27.0380   12.3920 N.3    97  THR97      -0.1218
     28  CA         4.6970   28.0230   11.8160 C.3    97  THR97       0.1862
     29  C          5.0950   27.6260   10.3940 C.2    97  THR97       0.2287
     30  O          5.2840   28.4540    9.4910 O.2    97  THR97      -0.2866
     31  CB         5.9540   28.2470   12.6750 C.3    97  THR97       0.1770
     32  OG1        6.6820   27.0230   12.8480 O.3    97  THR97      -0.2211
     33  CG2        5.6010   28.7210   14.0850 C.3    97  THR97       0.0375
     34  N          1.7850   28.1790    8.2840 N.3   100  ARG100     -0.1231
     35  CA         1.3860   29.5720    8.1590 C.3   100  ARG100      0.1694
     36  C          2.4810   30.4990    7.6420 C.2   100  ARG100      0.2592
     37  O          2.1280   31.4850    6.9880 O.2   100  ARG100     -0.2718
     38  CB         0.9010   30.0690    9.5240 C.3   100  ARG100      0.0321
     39  CG        -0.5710   29.7540    9.8060 C.3   100  ARG100      0.0489
     40  CD        -0.6890   28.4200   10.5040 C.3   100  ARG100      0.2205
     41  NE        -2.0360   28.0710   10.9470 N.pl3 100  ARG100     -0.0865
     42  CZ        -2.3020   27.9280   12.2470 C.cat 100  ARG100      0.5346
     43  NH1       -1.3070   28.1220   13.1030 N.pl3 100  ARG100      0.1354
     44  NH2       -3.5140   27.6090   12.6670 N.pl3 100  ARG100      0.1354
     45  N          3.7600   30.2440    7.8860 N.am  101  PHE101     -0.1976
     46  CA         4.8260   31.1460    7.4950 C.3   101  PHE101      0.1639
     47  C          5.4130   30.8320    6.1230 C.2   101  PHE101      0.2290
     48  O          6.0310   31.6880    5.4880 O.2   101  PHE101     -0.2864
     49  CB         6.0010   31.1070    8.4790 C.3   101  PHE101      0.0560
     50  CG         5.6780   31.6190    9.8780 C.ar  101  PHE101     -0.0200
     51  CD1        4.4180   32.0860   10.1970 C.ar  101  PHE101     -0.0042
     52  CD2        6.6580   31.6130   10.8600 C.ar  101  PHE101     -0.0042
     53  CE1        4.1330   32.5390   11.4760 C.ar  101  PHE101     -0.0003
     54  CE2        6.3860   32.0710   12.1430 C.ar  101  PHE101     -0.0003
     55  CZ         5.1200   32.5320   12.4400 C.ar  101  PHE101     -0.0000
     56  N         -6.1450   22.0220   11.5670 N.3   124  ARG124     -0.1245
     57  CA        -5.6780   23.3610   11.8990 C.3   124  ARG124      0.1563
     58  C         -6.1530   24.4500   10.9480 C.2   124  ARG124      0.2260
     59  O         -6.0620   24.3490    9.7210 O.2   124  ARG124     -0.2867
     60  CB        -4.1390   23.3580   11.9210 C.3   124  ARG124      0.0307
     61  CG        -3.5650   22.2670   12.8040 C.3   124  ARG124      0.0489
     62  CD        -2.3880   22.7360   13.6320 C.3   124  ARG124      0.2205
     63  NE        -2.6540   23.9610   14.3890 N.pl3 124  ARG124     -0.0865
     64  CZ        -1.6870   24.5760   15.0670 C.cat 124  ARG124      0.5346
     65  NH1       -0.4620   24.0650   15.0560 N.pl3 124  ARG124      0.1354
     66  NH2       -1.9310   25.6800   15.7460 N.pl3 124  ARG124      0.1354
     67  N         -8.6920   33.2680   14.7510 N.3   166  ALA166     -0.1231
     68  CA        -8.3460   31.8710   14.9780 C.3   166  ALA166      0.1694
     69  C         -6.8610   31.6970   15.2180 C.2   166  ALA166      0.2593
     70  O         -6.4070   30.7710   15.8890 O.2   166  ALA166     -0.2718
     71  CB        -8.7920   31.0510   13.7770 C.3   166  ALA166      0.0304
     72  N         -6.0370   32.5900   14.6590 N.am  167  SER167     -0.1938
     73  CA        -4.6100   32.3880   14.8510 C.3   167  SER167      0.2055
     74  C         -3.8060   33.6420   14.5350 C.2   167  SER167      0.2644
     75  O         -3.9090   34.1570   13.4270 O.2   167  SER167     -0.2714
     76  CB        -4.0460   31.2790   13.9430 C.3   167  SER167      0.2130
     77  OG        -2.6270   31.2360   14.1560 O.3   167  SER167     -0.2179
     78  N         -2.9930   34.0700   15.4850 N.am  168  SER168     -0.1935
     79  CA        -2.1100   35.1950   15.2260 C.3   168  SER168      0.2055
     80  C         -1.1340   34.8920   14.0980 C.2   168  SER168      0.2642
     81  O         -0.5990   35.8240   13.4970 O.2   168  SER168     -0.2714
     82  CB        -1.3240   35.5520   16.4890 C.3   168  SER168      0.2130
     83  OG        -0.2910   34.6180   16.7630 O.3   168  SER168     -0.2179
     84  N         -0.8950   33.6170   13.8160 N.am  169  GLN169     -0.1976
     85  CA         0.1120   33.2320   12.8350 C.3   169  GLN169      0.1601
     86  C         -0.2910   33.6340   11.4230 C.2   169  GLN169      0.2287
     87  O          0.5580   33.7010   10.5380 O.2   169  GLN169     -0.2864
     88  CB         0.3640   31.7200   12.9090 C.3   169  GLN169      0.0394
     89  CG         1.2140   31.3210   14.1030 C.3   169  GLN169      0.0908
     90  CD         1.6050   29.8540   14.0620 C.2   169  GLN169      0.2608
     91  OE1        1.0220   29.0740   13.2990 O.2   169  GLN169     -0.2717
     92  NE2        2.5940   29.5270   14.8930 N.am  169  GLN169     -0.0878
     93  N          1.3420   37.0580   11.4320 N.3   172  SER172     -0.1217
     94  CA         2.7860   36.8840   11.3680 C.3   172  SER172      0.1889
     95  C          3.2820   36.3360   10.0350 C.2   172  SER172      0.2288
     96  O          4.3350   36.7100    9.5300 O.2   172  SER172     -0.2866
     97  CB         3.2280   35.9360   12.4840 C.3   172  SER172      0.2089
     98  OG         3.2820   36.6680   13.7020 O.3   172  SER172     -0.2183
     99  N         -5.7690   36.8590   19.3910 N.3   195  PRO195     -0.2102
    100  CA        -4.9520   36.1790   20.3980 C.3   195  PRO195      0.1504
    101  C         -3.4630   36.4200   20.2060 C.2   195  PRO195      0.2576
    102  O         -2.9780   36.7700   19.1370 O.2   195  PRO195     -0.2718
    103  CB        -5.2750   34.6990   20.1590 C.3   195  PRO195      0.0282
    104  CG        -5.6960   34.6160   18.7290 C.3   195  PRO195      0.0208
    105  CD        -6.3720   35.9240   18.4300 C.3   195  PRO195      0.0893
    106  N         -2.6940   36.2180   21.2680 N.am  196  SER196     -0.1953
    107  CA        -1.2500   36.1180   21.1890 C.3   196  SER196      0.1924
    108  C         -0.5880   37.3560   20.5990 C.2   196  SER196      0.2314
    109  O          0.3200   37.2530   19.7730 O.2   196  SER196     -0.2863
    110  CB        -0.8490   34.8730   20.3760 C.3   196  SER196      0.2116
    111  OG        -1.7560   33.8100   20.6110 O.3   196  SER196     -0.2180
    112  N          3.1910   37.4830   20.0800 N.3   199  HIS199     -0.1241
    113  CA         3.8890   36.7900   18.9850 C.3   199  HIS199      0.1621
    114  C          3.8720   37.5950   17.6910 C.2   199  HIS199      0.2264
    115  O          4.8180   37.4670   16.9220 O.2   199  HIS199     -0.2867
    116  CB         3.3010   35.3960   18.7350 C.3   199  HIS199      0.0745
    117  CG         3.7800   34.4670   19.8180 C.ar  199  HIS199      0.0817
    118  ND1        5.0430   33.9100   19.8280 N.ar  199  HIS199     -0.2268
    119  CD2        3.1450   34.0250   20.9240 C.ar  199  HIS199      0.1154
    120  CE1        5.1700   33.1490   20.9020 C.ar  199  HIS199      0.1986
    121  NE2        4.0330   33.2080   21.5790 N.ar  199  HIS199     -0.2212
    122  N         -1.5910   31.9980   25.4320 N.3   310  GLY310     -0.1210
    123  CA        -2.3950   30.8020   25.3570 C.3   310  GLY310      0.1956
    124  C         -1.5950   29.5120   25.4500 C.2   310  GLY310      0.2611
    125  O         -2.0850   28.5090   25.9560 O.2   310  GLY310     -0.2717
    126  N         -0.3520   29.5140   24.9840 N.am  311  GLU311     -0.1979
    127  CA         0.4500   28.2890   24.9570 C.3   311  GLU311      0.1602
    128  C          1.0190   27.9560   26.3250 C.2   311  GLU311      0.2287
    129  O          1.7600   26.9860   26.5370 O.2   311  GLU311     -0.2864
    130  CB         1.5140   28.4500   23.8710 C.3   311  GLU311      0.0415
    131  CG         2.8720   28.8740   24.3510 C.3   311  GLU311      0.1163
    132  CD         3.5460   30.0240   23.6530 C.2   311  GLU311      0.3649
    133  OE1        4.6690   29.8420   23.1300 O.co2 311  GLU311     -0.2457
    134  OE2        2.9660   31.1290   23.6280 O.co2 311  GLU311     -0.2457
    135  N         -9.4380   30.2640   21.5520 N.3   336  HIS336     -0.1241
    136  CA        -8.7320   29.9130   20.3180 C.3   336  HIS336      0.1621
    137  C         -7.9490   28.6140   20.4630 C.2   336  HIS336      0.2264
    138  O         -7.4070   28.0890   19.4790 O.2   336  HIS336     -0.2867
    139  CB        -7.8470   31.0840   19.8760 C.3   336  HIS336      0.0745
    140  CG        -6.5240   31.2430   20.5580 C.ar  336  HIS336      0.0817
    141  ND1       -6.3650   31.8970   21.7590 N.ar  336  HIS336     -0.2268
    142  CD2       -5.2780   30.8410   20.2050 C.ar  336  HIS336      0.1154
    143  CE1       -5.0920   31.8850   22.1200 C.ar  336  HIS336      0.1986
    144  NE2       -4.4080   31.2440   21.1880 N.ar  336  HIS336     -0.2212
    145  N         -5.7680   24.4510   18.2920 N.3   340  HIS340     -0.1226
    146  CA        -4.3200   24.2310   18.3300 C.3   340  HIS340      0.1752
    147  C         -3.9200   22.8600   17.7830 C.2   340  HIS340      0.2595
    148  O         -4.7380   22.2290   17.1050 O.2   340  HIS340     -0.2718
    149  CB        -3.8140   24.4340   19.7690 C.3   340  HIS340      0.0759
    150  CG        -3.3980   25.8550   20.0210 C.ar  340  HIS340      0.0818
    151  ND1       -2.6700   26.2580   21.1150 N.ar  340  HIS340     -0.2268
    152  CD2       -3.6260   26.9780   19.2950 C.ar  340  HIS340      0.1154
    153  CE1       -2.4610   27.5620   21.0600 C.ar  340  HIS340      0.1986
    154  NE2       -3.0320   28.0230   19.9590 N.ar  340  HIS340     -0.2212
    155  N         -2.6970   22.4760   18.1070 N.am  341  GLU341     -0.1979
    156  CA        -2.0510   21.1880   17.9420 C.3   341  GLU341      0.1602
    157  C         -3.1330   20.0970   17.9510 C.2   341  GLU341      0.2287
    158  O         -3.2760   19.3180   17.0170 O.2   341  GLU341     -0.2864
    159  CB        -1.0360   20.9320   19.0550 C.3   341  GLU341      0.0415
    160  CG         0.4310   21.0940   18.7110 C.3   341  GLU341      0.1163
    161  CD         1.0370   22.4230   19.1130 C.2   341  GLU341      0.3649
    162  OE1        0.2810   23.4110   19.2490 O.co2 341  GLU341     -0.2457
    163  OE2        2.2700   22.5170   19.2950 O.co2 341  GLU341     -0.2457
    164  N         -6.8410   21.9670   22.8380 N.3   344  ARG344     -0.1245
    165  CA        -6.2840   21.7700   24.1800 C.3   344  ARG344      0.1563
    166  C         -7.2720   21.9070   25.3200 C.2   344  ARG344      0.2260
    167  O         -6.9910   21.4000   26.4210 O.2   344  ARG344     -0.2867
    168  CB        -5.1070   22.7420   24.3710 C.3   344  ARG344      0.0307
    169  CG        -3.9050   22.3490   23.5220 C.3   344  ARG344      0.0489
    170  CD        -2.7850   23.3690   23.6470 C.3   344  ARG344      0.2205
    171  NE        -1.5280   22.8470   23.1230 N.pl3 344  ARG344     -0.0865
    172  CZ        -0.5230   23.5870   22.6900 C.cat 344  ARG344      0.5346
    173  NH1       -0.6040   24.9130   22.7020 N.pl3 344  ARG344      0.1354
    174  NH2        0.5700   22.9820   22.2390 N.pl3 344  ARG344      0.1354
    175  N          3.2890   18.2680   22.5070 N.3   384  HIS384     -0.1226
    176  CA         4.4130   18.4860   23.4060 C.3   384  HIS384      0.1752
    177  C          4.0380   19.1080   24.7540 C.2   384  HIS384      0.2595
    178  O          4.6250   18.7290   25.7790 O.2   384  HIS384     -0.2718
    179  CB         5.4810   19.3550   22.7280 C.3   384  HIS384      0.0759
    180  CG         5.0350   20.6960   22.2420 C.ar  384  HIS384      0.0818
    181  ND1        5.8290   21.8250   22.3270 N.ar  384  HIS384     -0.2268
    182  CD2        3.8790   21.1000   21.6580 C.ar  384  HIS384      0.1154
    183  CE1        5.1750   22.8590   21.8170 C.ar  384  HIS384      0.1986
    184  NE2        3.9900   22.4490   21.3990 N.ar  384  HIS384     -0.2212
    185  N          3.1040   20.0480   24.7880 N.am  385  ARG385     -0.1980
    186  CA         2.6940   20.7570   25.9940 C.3   385  ARG385      0.1597
    187  C          1.7660   19.9170   26.8650 C.2   385  ARG385      0.2287
    188  O          1.8060   19.9790   28.0970 O.2   385  ARG385     -0.2864
    189  CB         2.0050   22.0900   25.6300 C.3   385  ARG385      0.0334
    190  CG         2.9570   22.9330   24.7880 C.3   385  ARG385      0.0492
    191  CD         2.8480   24.4230   25.0390 C.3   385  ARG385      0.2205
    192  NE         3.7680   25.1580   24.1720 N.pl3 385  ARG385     -0.0865
    193  CZ         5.0670   25.3510   24.3410 C.cat 385  ARG385      0.5346
    194  NH1        5.7360   24.8760   25.3840 N.pl3 385  ARG385      0.1354
    195  NH2        5.7460   26.0510   23.4320 N.pl3 385  ARG385      0.1354
    196  N          8.6670   17.9760   19.5820 N.3   410  LYS410     -0.1245
    197  CA         8.1620   19.0750   18.7750 C.3   410  LYS410      0.1561
    198  C          9.0270   20.3140   19.0080 C.2   410  LYS410      0.2260
    199  O          9.3780   20.9280   18.0060 O.2   410  LYS410     -0.2867
    200  CB         6.7030   19.3950   19.0800 C.3   410  LYS410      0.0271
    201  CG         6.0500   20.3160   18.0430 C.3   410  LYS410      0.0035
    202  CD         4.6310   20.6560   18.4790 C.3   410  LYS410      0.0206
    203  CE         3.7630   21.1100   17.3190 C.3   410  LYS410      0.1093
    204  NZ         3.6940   22.5940   17.2430 N.3   410  LYS410     -0.1314
@<TRIPOS>BOND
     1    48    47    2
     2    47    46    1
     3    37    36    2
     4    46    45    1
     5    46    49    1
     6    36    45   am
     7    36    35    1
     8    35    34    1
     9    35    38    1
    10    49    50    1
    11    30    29    2
    12    38    39    1
    13    96    95    2
    14    59    58    2
    15    39    40    1
    16    50    51   ar
    17    50    52   ar
    18    95    94    1
    19    51    53   ar
    20    29    28    1
    21    40    41    1
    22    87    86    2
    23    19    18    2
    24    52    54   ar
    25    41    42    2
    26    58    57    1
    27    94    93    1
    28    94    97    1
    29    86    85    1
    30    53    55   ar
    31    56    57    1
    32    18    17    1
    33    28    27    1
    34    28    31    1
    35    57    60    1
    36    60    61    1
    37    54    55   ar
    38    42    44    1
    39    42    43    1
    40    17    16    1
    41    17    20    1
    42    97    98    1
    43    31    32    1
    44    31    33    1
    45    61    62    1
    46    85    88    1
    47    85    84    1
    48    88    89    1
    49    91    90    2
    50    20    21    1
    51    75    74    2
    52    81    80    2
    53    21    22    1
    54    62    63    1
    55    71    68    1
    56    84    80   am
    57    76    77    1
    58    76    73    1
    59    90    89    1
    60    90    92   am
    61    80    79    1
    62    63    64    2
    63    74    73    1
    64    74    78   am
    65    72    73    1
    66    72    69   am
    67    67    68    1
    68    22    23    1
    69    68    69    1
    70    65    64    1
    71    64    66    1
    72    69    70    2
    73    23    24    2
    74    79    78    1
    75    79    82    1
    76    24    25    1
    77    24    26    1
    78    13    12    2
    79    82    83    1
    80     4     3    2
    81   115   114    2
    82   158   157    2
    83    12    11    1
    84   148   147    2
    85   204   203    1
    86   203   202    1
    87     7     6    1
    88     7     8    1
    89     6     5    1
    90    11    10    1
    91    11    14    1
    92   114   113    1
    93     3    10   am
    94     3     2    1
    95   147   155   am
    96   147   146    1
    97   156   157    1
    98   156   155    1
    99   156   159    1
   100   199   198    2
   101   201   202    1
   102   201   200    1
   103     8     9    1
   104   145   146    1
   105   146   149    1
   106   105   104    1
   107   105    99    1
   108     2     5    1
   109     2     1    1
   110    14    15    1
   111   160   159    1
   112   160   161    1
   113   104   103    1
   114   116   113    1
   115   116   117    1
   116   197   198    1
   117   197   200    1
   118   197   196    1
   119   113   112    1
   120   161   162   ar
   121   161   163   ar
   122   102   101    2
   123   152   154   ar
   124   152   150   ar
   125    99   100    1
   126   138   137    2
   127   149   150    1
   128   109   108    2
   129   117   118   ar
   130   117   119   ar
   131   118   120   ar
   132   139   136    1
   133   139   140    1
   134   154   153   ar
   135   150   151   ar
   136   103   100    1
   137   142   140   ar
   138   142   144   ar
   139   101   100    1
   140   101   106   am
   141   136   137    1
   142   136   135    1
   143   110   111    1
   144   110   107    1
   145   140   141   ar
   146   108   107    1
   147   120   121   ar
   148   119   121   ar
   149   153   151   ar
   150   144   143   ar
   151   107   106    1
   152   184   182   ar
   153   184   183   ar
   154   182   180   ar
   155   141   143   ar
   156   183   181   ar
   157   174   172    1
   158   180   181   ar
   159   180   179    1
   160   175   176    1
   161   172   173    1
   162   172   171    2
   163   179   176    1
   164   164   165    1
   165   171   170    1
   166   133   132   ar
   167   176   177    1
   168   195   193    1
   169   169   170    1
   170   169   168    1
   171   134   132   ar
   172   132   131    1
   173   130   131    1
   174   130   127    1
   175   192   193    2
   176   192   191    1
   177   165   168    1
   178   165   166    1
   179   193   194    1
   180   177   185   am
   181   177   178    2
   182   185   186    1
   183   190   191    1
   184   190   189    1
   185   127   126    1
   186   127   128    1
   187   126   124   am
   188   166   167    2
   189   123   122    1
   190   123   124    1
   191   124   125    2
   192   189   186    1
   193   186   187    1
   194   128   129    2
   195   187   188    2
