@<TRIPOS>MOLECULE
tmp/2o12A00.pdb
 207 194 0 0 0
SMALL
GASTEIGER

@<TRIPOS>ATOM
      1  N         60.2890   22.0210   19.8670 N.3    40  ARG40      -0.1245
      2  CA        61.6310   21.4330   20.0070 C.3    40  ARG40       0.1563
      3  C         62.5970   22.2890   20.8370 C.2    40  ARG40       0.2260
      4  O         63.5900   21.7940   21.3460 O.2    40  ARG40      -0.2867
      5  CB        62.2080   21.1050   18.6240 C.3    40  ARG40       0.0307
      6  CG        63.4080   20.1500   18.6570 C.3    40  ARG40       0.0489
      7  CD        64.1940   20.1590   17.3460 C.3    40  ARG40       0.2205
      8  NE        64.8930   21.4260   17.2410 N.pl3  40  ARG40      -0.0865
      9  CZ        66.0920   21.6820   17.7350 C.cat  40  ARG40       0.5346
     10  NH1       66.8340   20.7300   18.2910 N.pl3  40  ARG40       0.1354
     11  NH2       66.5700   22.9190   17.6380 N.pl3  40  ARG40       0.1354
     12  N         68.2050   24.8390   29.1030 N.3    46  ARG46      -0.1245
     13  CA        68.8440   25.1660   27.8250 C.3    46  ARG46       0.1563
     14  C         69.3420   26.6060   27.8060 C.2    46  ARG46       0.2260
     15  O         70.1390   27.0180   28.6530 O.2    46  ARG46      -0.2867
     16  CB        67.8570   24.9860   26.6800 C.3    46  ARG46       0.0307
     17  CG        67.1830   23.6490   26.6530 C.3    46  ARG46       0.0489
     18  CD        68.1900   22.5330   26.4860 C.3    46  ARG46       0.2205
     19  NE        68.8380   22.5440   25.1790 N.pl3  46  ARG46      -0.0865
     20  CZ        68.2680   22.0950   24.0640 C.cat  46  ARG46       0.5346
     21  NH1       67.0380   21.5960   24.0960 N.pl3  46  ARG46       0.1354
     22  NH2       68.9280   22.1400   22.9100 N.pl3  46  ARG46       0.1354
     23  N         86.0960   16.1400   22.0700 N.3   106  ARG106     -0.1245
     24  CA        85.3120   16.0150   23.2850 C.3   106  ARG106      0.1563
     25  C         84.9370   14.5650   23.5770 C.2   106  ARG106      0.2260
     26  O         84.2690   13.9320   22.7490 O.2   106  ARG106     -0.2867
     27  CB        84.0260   16.8030   23.1310 C.3   106  ARG106      0.0307
     28  CG        84.2010   18.3100   23.0090 C.3   106  ARG106      0.0489
     29  CD        82.9160   18.9470   22.5850 C.3   106  ARG106      0.2205
     30  NE        82.6320   18.6440   21.1810 N.pl3 106  ARG106     -0.0865
     31  CZ        81.5380   19.0150   20.5460 C.cat 106  ARG106      0.5346
     32  NH1       80.5930   19.6930   21.1700 N.pl3 106  ARG106      0.1354
     33  NH2       81.3770   18.6740   19.2720 N.pl3 106  ARG106      0.1354
     34  N         82.6810   11.6770   24.5780 N.3   108  GLY108     -0.1210
     35  CA        81.2540   11.6190   24.4810 C.3   108  GLY108      0.1956
     36  C         80.6380   12.1630   23.2160 C.2   108  GLY108      0.2612
     37  O         79.4470   11.9630   22.9770 O.2   108  GLY108     -0.2717
     38  N         81.4140   12.8890   22.4050 N.am  109  HIS109     -0.1961
     39  CA        80.8990   13.4510   21.1720 C.3   109  HIS109      0.1787
     40  C         81.4640   12.6950   19.9530 C.2   109  HIS109      0.2620
     41  O         82.2980   11.7920   20.1020 O.2   109  HIS109     -0.2715
     42  CB        81.2170   14.9580   21.1510 C.3   109  HIS109      0.0785
     43  CG        80.0190   15.8140   20.8980 C.ar  109  HIS109      0.0821
     44  ND1       79.4860   15.9750   19.6350 N.ar  109  HIS109     -0.2267
     45  CD2       79.2490   16.5590   21.7270 C.ar  109  HIS109      0.1154
     46  CE1       78.4380   16.7790   19.7000 C.ar  109  HIS109      0.1986
     47  NE2       78.2700   17.1430   20.9590 N.ar  109  HIS109     -0.2212
     48  N         81.0150   13.0610   18.7530 N.am  110  ALA110     -0.1977
     49  CA        81.4500   12.4340   17.5170 C.3   110  ALA110      0.1597
     50  C         82.8850   12.7540   17.1180 C.2   110  ALA110      0.2287
     51  O         83.4540   12.0930   16.2650 O.2   110  ALA110     -0.2864
     52  CB        80.5190   12.8390   16.3980 C.3   110  ALA110      0.0319
     53  N         77.2870   16.5180   12.9700 N.3   130  ALA130     -0.1231
     54  CA        76.8770   15.6630   14.0960 C.3   130  ALA130      0.1694
     55  C         75.9600   16.3770   15.0670 C.2   130  ALA130      0.2593
     56  O         75.1640   15.7450   15.7490 O.2   130  ALA130     -0.2718
     57  CB        78.0870   15.1230   14.7980 C.3   130  ALA130      0.0304
     58  N         76.0780   17.7050   15.1450 N.am  131  SER131     -0.1938
     59  CA        75.3190   18.5080   16.1020 C.3   131  SER131      0.2055
     60  C         73.8330   18.2280   16.0460 C.2   131  SER131      0.2642
     61  O         73.2490   18.0840   14.9560 O.2   131  SER131     -0.2714
     62  CB        75.5270   20.0310   15.8480 C.3   131  SER131      0.2130
     63  OG        74.4600   20.8090   16.3990 O.3   131  SER131     -0.2179
     64  N         73.2250   18.2400   17.2310 N.am  132  ALA132     -0.1977
     65  CA        71.7990   18.0720   17.3820 C.3   132  ALA132      0.1597
     66  C         70.9130   19.2020   16.8000 C.2   132  ALA132      0.2287
     67  O         69.6780   19.1150   16.7510 O.2   132  ALA132     -0.2864
     68  CB        71.4780   17.7850   18.8440 C.3   132  ALA132      0.0319
     69  N         68.4190   17.8660   14.4490 N.3   135  THR135     -0.1218
     70  CA        67.0980   17.4090   14.8810 C.3   135  THR135      0.1862
     71  C         65.9910   18.3860   14.5250 C.2   135  THR135      0.2287
     72  O         64.8110   18.0430   14.4580 O.2   135  THR135     -0.2866
     73  CB        67.0430   17.0370   16.3990 C.3   135  THR135      0.1770
     74  OG1       67.2850   18.1850   17.2310 O.3   135  THR135     -0.2211
     75  CG2       68.0270   15.9170   16.7220 C.3   135  THR135      0.0375
     76  N         67.0430    5.2590   18.6660 N.3   247  MET247     -0.1245
     77  CA        68.4310    5.1580   19.1090 C.3   247  MET247      0.1570
     78  C         69.3430    6.0440   18.2470 C.2   247  MET247      0.2261
     79  O         70.4240    6.4000   18.6730 O.2   247  MET247     -0.2867
     80  CB        68.9520    3.7100   19.0870 C.3   247  MET247      0.0387
     81  CG        70.2820    3.5250   19.8490 C.3   247  MET247      0.0595
     82  SD        70.1030    3.4540   21.6550 S.3   247  MET247     -0.1393
     83  CE        69.5240    1.7500   21.8620 C.3   247  MET247      0.0692
     84  N         68.7760    9.0110   17.3730 N.3   249  ILE249     -0.1231
     85  CA        68.7690   10.3890   17.8780 C.3   249  ILE249      0.1692
     86  C         70.0210   10.6210   18.7140 C.2   249  ILE249      0.2592
     87  O         70.3920    9.8230   19.5780 O.2   249  ILE249     -0.2718
     88  CB        67.5190   10.6780   18.7300 C.3   249  ILE249      0.0266
     89  CG1       66.2370   10.5230   17.9160 C.3   249  ILE249      0.0019
     90  CG2       67.5480   12.1200   19.3300 C.3   249  ILE249      0.0020
     91  CD1       64.9680   10.4020   18.7630 C.3   249  ILE249      0.0001
     92  N         70.6840   11.7460   18.4470 N.am  250  GLN250     -0.1966
     93  CA        71.8460   12.1590   19.2300 C.3   250  GLN250      0.1733
     94  C         71.6210   11.9740   20.7570 C.2   250  GLN250      0.2616
     95  O         70.5810   12.3760   21.2890 O.2   250  GLN250     -0.2715
     96  CB        72.1240   13.6410   18.9270 C.3   250  GLN250      0.0408
     97  CG        72.6470   13.9500   17.5040 C.3   250  GLN250      0.0908
     98  CD        71.5940   14.1410   16.4370 C.2   250  GLN250      0.2608
     99  OE1       70.4740   13.6380   16.5320 O.2   250  GLN250     -0.2717
    100  NE2       71.9400   14.9290   15.3930 N.am  250  GLN250     -0.0878
    101  N         72.6010   11.3470   21.4130 N.am  251  ALA251     -0.1963
    102  CA        72.6890   11.1460   22.8780 C.3   251  ALA251      0.1728
    103  C         71.7810   10.0800   23.4620 C.2   251  ALA251      0.2616
    104  O         71.8450    9.8260   24.6700 O.2   251  ALA251     -0.2715
    105  CB        72.5280   12.4650   23.6520 C.3   251  ALA251      0.0334
    106  N         71.0000    9.4040   22.6130 N.am  252  ILE252     -0.1963
    107  CA        70.1440    8.2970   23.1310 C.3   252  ILE252      0.1727
    108  C         71.0100    7.0330   23.2880 C.2   252  ILE252      0.2616
    109  O         71.7230    6.6180   22.3450 O.2   252  ILE252     -0.2715
    110  CB        68.9160    8.0660   22.2350 C.3   252  ILE252      0.0290
    111  CG1       68.0230    9.2990   22.1460 C.3   252  ILE252      0.0022
    112  CG2       68.1030    6.8540   22.7380 C.3   252  ILE252      0.0023
    113  CD1       67.6020    9.8940   23.4870 C.3   252  ILE252      0.0001
    114  N         70.9830    6.4360   24.4830 N.am  253  LYS253     -0.1977
    115  CA        71.7770    5.2500   24.7980 C.3   253  LYS253      0.1596
    116  C         70.9320    4.0240   25.1660 C.2   253  LYS253      0.2287
    117  O         71.5080    2.9660   25.4530 O.2   253  LYS253     -0.2864
    118  CB        72.7310    5.5050   25.9620 C.3   253  LYS253      0.0298
    119  CG        73.6910    6.6750   25.7400 C.3   253  LYS253      0.0038
    120  CD        74.6180    6.5010   24.5370 C.3   253  LYS253      0.0206
    121  CE        75.5860    5.3410   24.6890 C.3   253  LYS253      0.1093
    122  NZ        76.4430    5.2230   23.4800 N.3   253  LYS253     -0.1314
    123  N         68.4470    9.3600   27.5480 N.3   308  MET308     -0.1230
    124  CA        69.3840   10.3320   27.0070 C.3   308  MET308      0.1702
    125  C         70.5260   10.5310   27.9860 C.2   308  MET308      0.2592
    126  O         70.2830   10.7490   29.1830 O.2   308  MET308     -0.2718
    127  CB        68.7020   11.6740   26.7680 C.3   308  MET308      0.0401
    128  CG        69.6190   12.7140   26.1000 C.3   308  MET308      0.0596
    129  SD        68.8420   14.3320   26.1450 S.3   308  MET308     -0.1393
    130  CE        69.6840   15.1130   24.7790 C.3   308  MET308      0.0692
    131  N         71.7450   10.4420   27.4850 N.am  309  LYS309     -0.1980
    132  CA        72.9220   10.6940   28.3180 C.3   309  LYS309      0.1596
    133  C         73.0220   12.1940   28.5990 C.2   309  LYS309      0.2287
    134  O         72.4870   12.9980   27.8520 O.2   309  LYS309     -0.2864
    135  CB        74.1940   10.1980   27.6860 C.3   309  LYS309      0.0298
    136  CG        74.7580   11.0290   26.5300 C.3   309  LYS309      0.0038
    137  CD        75.8870   10.2780   25.8650 C.3   309  LYS309      0.0206
    138  CE        76.7240   11.1810   24.9600 C.3   309  LYS309      0.1093
    139  NZ        77.6070   10.3670   24.0690 N.3   309  LYS309     -0.1314
    140  N         74.5520   15.7420   28.4880 N.3   311  ILE311     -0.1231
    141  CA        75.3540   16.4170   27.4590 C.3   311  ILE311      0.1692
    142  C         76.8410   16.3200   27.7860 C.2   311  ILE311      0.2593
    143  O         77.2390   16.4390   28.9430 O.2   311  ILE311     -0.2718
    144  CB        74.8970   17.9050   27.3390 C.3   311  ILE311      0.0266
    145  CG1       73.8330   18.0700   26.2490 C.3   311  ILE311      0.0019
    146  CG2       76.0730   18.8580   27.0470 C.3   311  ILE311      0.0020
    147  CD1       72.8870   16.9160   26.0480 C.3   311  ILE311      0.0001
    148  N         77.6580   16.0920   26.7560 N.am  312  SER312     -0.1938
    149  CA        79.0820   15.7800   26.9400 C.3   312  SER312      0.2055
    150  C         79.9610   17.0070   27.0130 C.2   312  SER312      0.2643
    151  O         81.0630   16.9460   27.5750 O.2   312  SER312     -0.2714
    152  CB        79.5900   14.8100   25.8460 C.3   312  SER312      0.2130
    153  OG        79.6460   15.4070   24.5590 O.3   312  SER312     -0.2179
    154  N         79.4860   18.1090   26.4470 N.am  313  THR313     -0.1950
    155  CA        80.1840   19.3830   26.5540 C.3   313  THR313      0.1897
    156  C         79.9080   19.9270   27.9650 C.2   313  THR313      0.2313
    157  O         78.8860   20.5570   28.1980 O.2   313  THR313     -0.2863
    158  CB        79.7370   20.3880   25.4350 C.3   313  THR313      0.1794
    159  OG1       79.7790   19.7550   24.1440 O.3   313  THR313     -0.2208
    160  CG2       80.6560   21.6040   25.3970 C.3   313  THR313      0.0378
    161  N         78.9910   24.4480   22.4260 N.3   335  ARG335     -0.1231
    162  CA        77.6470   24.5700   22.9750 C.3   335  ARG335      0.1694
    163  C         77.4450   23.5450   24.0700 C.2   335  ARG335      0.2593
    164  O         77.7460   22.3480   23.8950 O.2   335  ARG335     -0.2718
    165  CB        76.6030   24.3500   21.8810 C.3   335  ARG335      0.0321
    166  CG        75.1540   24.6090   22.3000 C.3   335  ARG335      0.0489
    167  CD        74.1920   24.4220   21.1290 C.3   335  ARG335      0.2205
    168  NE        74.7100   25.0380   19.9090 N.pl3 335  ARG335     -0.0865
    169  CZ        74.2030   24.8720   18.6890 C.cat 335  ARG335      0.5346
    170  NH1       73.1240   24.1290   18.4860 N.pl3 335  ARG335      0.1354
    171  NH2       74.7780   25.4760   17.6570 N.pl3 335  ARG335      0.1354
    172  N         76.9540   24.0370   25.2000 N.am  336  SER336     -0.1938
    173  CA        76.5770   23.1990   26.3190 C.3   336  SER336      0.2055
    174  C         75.3020   23.7630   26.9270 C.2   336  SER336      0.2643
    175  O         75.1040   24.9750   27.0040 O.2   336  SER336     -0.2714
    176  CB        77.6830   23.1770   27.3800 C.3   336  SER336      0.2130
    177  OG        77.3210   22.3530   28.4860 O.3   336  SER336     -0.2179
    178  N         74.4370   22.8650   27.3590 N.am  337  ASP337     -0.1971
    179  CA        73.3100   23.2360   28.1730 C.3   337  ASP337      0.1709
    180  C         73.3360   22.3330   29.3910 C.2   337  ASP337      0.2293
    181  O         74.0410   21.3220   29.4020 O.2   337  ASP337     -0.2864
    182  CB        72.0360   23.0780   27.3570 C.3   337  ASP337      0.1436
    183  CG        71.8420   24.2210   26.3780 C.2   337  ASP337      0.3671
    184  OD1       71.9610   25.3980   26.7920 O.co2 337  ASP337     -0.2456
    185  OD2       71.5750   23.9510   25.1960 O.co2 337  ASP337     -0.2456
    186  N         68.9200   18.8070   28.0990 N.3   340  ALA340     -0.1245
    187  CA        68.1000   18.8940   26.9000 C.3   340  ALA340      0.1562
    188  C         67.0700   17.7640   26.8150 C.2   340  ALA340      0.2260
    189  O         66.5580   17.4600   25.7420 O.2   340  ALA340     -0.2867
    190  CB        68.9780   18.8460   25.6730 C.3   340  ALA340      0.0290
    191  N         63.4200   18.5880   25.2710 N.3   343  ALA343     -0.1231
    192  CA        63.5220   18.6930   23.8080 C.3   343  ALA343      0.1694
    193  C         63.7530   17.3230   23.1710 C.2   343  ALA343      0.2591
    194  O         63.1680   17.0430   22.1110 O.2   343  ALA343     -0.2718
    195  CB        64.6600   19.6240   23.4200 C.3   343  ALA343      0.0304
    196  N         64.5940   16.4990   23.7940 N.am  344  ALA344     -0.1980
    197  CA        64.8450   15.1260   23.2860 C.3   344  ALA344      0.1597
    198  C         63.5080   14.3930   23.1780 C.2   344  ALA344      0.2287
    199  O         63.2700   13.6760   22.1970 O.2   344  ALA344     -0.2864
    200  CB        65.7980   14.3830   24.1830 C.3   344  ALA344      0.0319
    201  N         61.8170   15.3490   20.0220 N.3   347  VAL347     -0.1245
    202  CA        62.4870   14.6960   18.8880 C.3   347  VAL347      0.1561
    203  C         62.0460   13.2320   18.7850 C.2   347  VAL347      0.2260
    204  O         61.7580   12.7400   17.6940 O.2   347  VAL347     -0.2867
    205  CB        64.0130   14.8360   18.9270 C.3   347  VAL347      0.0252
    206  CG1       64.6770   14.1220   17.7240 C.3   347  VAL347      0.0019
    207  CG2       64.4110   16.3240   18.9500 C.3   347  VAL347      0.0019
@<TRIPOS>BOND
     1    53    54    1
     2    54    57    1
     3    54    55    1
     4    69    70    1
     5    72    71    2
     6    71    70    1
     7    70    73    1
     8    61    60    2
     9    55    58   am
    10    55    56    2
    11    58    59    1
    12   100    98   am
    13    62    59    1
    14    62    63    1
    15    60    59    1
    16    60    64   am
    17    51    50    2
    18    52    49    1
    19    73    75    1
    20    73    74    1
    21    98    99    2
    22    98    97    1
    23    67    66    2
    24    66    65    1
    25    50    49    1
    26    64    65    1
    27     8     7    1
    28     8     9    2
    29     7     6    1
    30    84    85    1
    31    65    68    1
    32    97    96    1
    33    49    48    1
    34    11     9    1
    35   171   169    1
    36   204   203    2
    37   206   205    1
    38     9    10    1
    39    85    86    1
    40    85    88    1
    41    89    88    1
    42    89    91    1
    43    78    79    2
    44    78    77    1
    45    92    86   am
    46    92    93    1
    47   170   169    1
    48     5     6    1
    49     5     2    1
    50    76    77    1
    51   169   168    2
    52    86    87    2
    53    88    90    1
    54    48    40   am
    55   203   202    1
    56   202   205    1
    57   202   201    1
    58    96    93    1
    59   205   207    1
    60    80    77    1
    61    80    81    1
    62    93    94    1
    63    33    31    1
    64    44    46   ar
    65    44    43   ar
    66    46    47   ar
    67    81    82    1
    68     1     2    1
    69   168   167    1
    70    40    41    2
    71    40    39    1
    72     2     3    1
    73    31    32    1
    74    31    30    2
    75    94    95    2
    76    94   101   am
    77     3     4    2
    78    43    42    1
    79    43    45   ar
    80    47    45   ar
    81   167   166    1
    82    42    39    1
    83    39    38    1
    84    30    29    1
    85   101   102    1
    86    82    83    1
    87   165   166    1
    88   165   162    1
    89    23    24    1
    90   194   193    2
    91   111   110    1
    92   111   113    1
    93   199   198    2
    94   110   112    1
    95   110   107    1
    96   109   108    2
    97    38    36   am
    98   161   162    1
    99    29    28    1
   100   106   107    1
   101   106   103   am
   102    26    25    2
   103   102   103    1
   104   102   105    1
   105    22    20    1
   106   162   163    1
   107    37    36    2
   108    28    27    1
   109   107   108    1
   110    27    24    1
   111   193   196   am
   112   193   192    1
   113   198   197    1
   114    36    35    1
   115    24    25    1
   116   197   196    1
   117   197   200    1
   118   108   114   am
   119   195   192    1
   120   103   104    2
   121   122   121    1
   122   192   191    1
   123   164   163    2
   124    20    21    1
   125    20    19    2
   126   139   138    1
   127   163   172   am
   128   159   158    1
   129    35    34    1
   130   114   115    1
   131   120   121    1
   132   120   119    1
   133   153   152    1
   134   130   129    1
   135   115   116    1
   136   115   118    1
   137   138   137    1
   138   116   117    2
   139    19    18    1
   140   185   183   ar
   141   172   173    1
   142   160   158    1
   143   158   155    1
   144   190   187    1
   145   119   118    1
   146   189   188    2
   147   152   149    1
   148   137   136    1
   149   147   145    1
   150   128   129    1
   151   128   127    1
   152   145   144    1
   153   173   174    1
   154   173   176    1
   155   183   184   ar
   156   183   182    1
   157   154   155    1
   158   154   150   am
   159    18    17    1
   160   136   135    1
   161   155   156    1
   162    17    16    1
   163    16    13    1
   164   148   149    1
   165   148   142   am
   166   127   124    1
   167   188   187    1
   168   187   186    1
   169   174   175    2
   170   174   178   am
   171   149   150    1
   172   124   123    1
   173   124   125    1
   174   150   151    2
   175   146   144    1
   176   144   141    1
   177   182   179    1
   178   178   179    1
   179   176   177    1
   180   141   142    1
   181   141   140    1
   182   131   125   am
   183   131   132    1
   184   135   132    1
   185   142   143    2
   186    14    13    1
   187    14    15    2
   188    13    12    1
   189   134   133    2
   190   156   157    2
   191   125   126    2
   192   179   180    1
   193   132   133    1
   194   180   181    2
