@<TRIPOS>MOLECULE
tmp/2o17A00.pdb
 199 182 0 0 0
SMALL
GASTEIGER

@<TRIPOS>ATOM
      1  N         21.7710    6.0760   -2.9090 N.3   118  LYS118     -0.1245
      2  CA        21.9950    5.2590   -1.7220 C.3   118  LYS118      0.1561
      3  C         23.1360    5.8110   -0.8800 C.2   118  LYS118      0.2260
      4  O         23.0610    5.8320    0.3600 O.2   118  LYS118     -0.2867
      5  CB        22.2990    3.8250   -2.1610 C.3   118  LYS118      0.0271
      6  CG        22.8280    2.9200   -1.0800 C.3   118  LYS118      0.0035
      7  CD        23.4810    1.6770   -1.6770 C.3   118  LYS118      0.0206
      8  CE        24.0220    0.8160   -0.5620 C.3   118  LYS118      0.1093
      9  NZ        23.5650   -0.5890   -0.7350 N.3   118  LYS118     -0.1314
     10  N         20.4630    2.5660    8.9830 N.3   146  GLN146     -0.1245
     11  CA        20.6900    1.0980    9.0190 C.3   146  GLN146      0.1566
     12  C         21.4060    0.6830   10.2940 C.2   146  GLN146      0.2260
     13  O         22.4210    1.2740   10.6670 O.2   146  GLN146     -0.2867
     14  CB        21.4420    0.5740    7.7740 C.3   146  GLN146      0.0367
     15  CG        21.7540   -0.9360    7.8220 C.3   146  GLN146      0.0905
     16  CD        22.3030   -1.5030    6.5100 C.2   146  GLN146      0.2608
     17  OE1       21.6460   -2.3070    5.8470 O.2   146  GLN146     -0.2717
     18  NE2       23.5130   -1.0940    6.1400 N.am  146  GLN146     -0.0878
     19  N          6.7380  -10.4300  -10.0050 N.3   173  ASP173     -0.1225
     20  CA         6.3470  -10.1010   -8.6290 C.3   173  ASP173      0.1805
     21  C          4.8290  -10.0240   -8.5220 C.2   173  ASP173      0.2598
     22  O          4.2040   -8.9880   -8.7930 O.2   173  ASP173     -0.2718
     23  CB         7.0040   -8.7940   -8.1560 C.3   173  ASP173      0.1424
     24  CG         6.7820   -8.5200   -6.6700 C.2   173  ASP173      0.3668
     25  OD1        6.0490   -9.2860   -6.0010 O.co2 173  ASP173     -0.2456
     26  OD2        7.3380   -7.5170   -6.1710 O.co2 173  ASP173     -0.2456
     27  N          4.2390  -11.1370   -8.1120 N.am  174  GLY174     -0.1957
     28  CA         2.7980  -11.2870   -8.1730 C.3   174  GLY174      0.1869
     29  C          2.3710  -11.5330   -9.6070 C.2   174  GLY174      0.2309
     30  O          3.2120  -11.6470  -10.5070 O.2   174  GLY174     -0.2863
     31  N          5.2540   -5.9280  -10.1880 N.3   178  ASN178     -0.1240
     32  CA         5.2470   -4.8280   -9.2220 C.3   178  ASN178      0.1653
     33  C          6.5190   -4.0400   -9.3890 C.2   178  ASN178      0.2266
     34  O          7.5250   -4.5770   -9.8520 O.2   178  ASN178     -0.2867
     35  CB         5.1880   -5.3300   -7.7720 C.3   178  ASN178      0.1155
     36  CG         3.7710   -5.5440   -7.2790 C.2   178  ASN178      0.2627
     37  OD1        2.9400   -4.6370   -7.3210 O.2   178  ASN178     -0.2716
     38  ND2        3.4880   -6.7520   -6.7990 N.am  178  ASN178     -0.0877
     39  N          9.4330   -2.2580   -7.1640 N.3   180  ASN180     -0.1225
     40  CA        10.0280   -2.3390   -5.8170 C.3   180  ASN180      0.1785
     41  C         11.1610   -1.3370   -5.5840 C.2   180  ASN180      0.2598
     42  O         12.0330   -1.1550   -6.4410 O.2   180  ASN180     -0.2718
     43  CB        10.5840   -3.7390   -5.5460 C.3   180  ASN180      0.1169
     44  CG         9.5150   -4.8020   -5.5740 C.2   180  ASN180      0.2627
     45  OD1        8.7590   -4.9600   -4.6100 O.2   180  ASN180     -0.2716
     46  ND2        9.4460   -5.5480   -6.6790 N.am  180  ASN180     -0.0877
     47  N         11.1640   -0.7240   -4.4030 N.am  181  SER181     -0.1938
     48  CA        12.1960    0.2410   -4.0460 C.3   181  SER181      0.2055
     49  C         13.0190   -0.2390   -2.8440 C.2   181  SER181      0.2642
     50  O         12.6910   -1.2700   -2.2380 O.2   181  SER181     -0.2714
     51  CB        11.5650    1.6160   -3.8140 C.3   181  SER181      0.2130
     52  OG        11.1600    2.1910   -5.0550 O.3   181  SER181     -0.2179
     53  N         14.0790    0.5040   -2.5060 N.am  182  GLN182     -0.1976
     54  CA        15.0840    0.0370   -1.5360 C.3   182  GLN182      0.1601
     55  C         15.0690    0.6530   -0.1210 C.2   182  GLN182      0.2287
     56  O         15.4400   -0.0280    0.8350 O.2   182  GLN182     -0.2864
     57  CB        16.5030    0.1570   -2.1300 C.3   182  GLN182      0.0394
     58  CG        16.8010   -0.7640   -3.3350 C.3   182  GLN182      0.0908
     59  CD        16.5410   -2.2400   -3.0580 C.2   182  GLN182      0.2608
     60  OE1       17.1510   -2.8500   -2.1700 O.2   182  GLN182     -0.2717
     61  NE2       15.6270   -2.8220   -3.8230 N.am  182  GLN182     -0.0878
     62  N         14.0250    1.9580    3.4940 N.3   184  ASP184     -0.1239
     63  CA        13.1520    2.0190    4.6720 C.3   184  ASP184      0.1674
     64  C         13.5030    3.2660    5.4810 C.2   184  ASP184      0.2266
     65  O         14.5170    3.8940    5.2280 O.2   184  ASP184     -0.2867
     66  CB        13.3550    0.7940    5.5720 C.3   184  ASP184      0.1410
     67  CG        13.4200   -0.5130    4.7950 C.2   184  ASP184      0.3668
     68  OD1       12.5440   -0.7450    3.9290 O.co2 184  ASP184     -0.2456
     69  OD2       14.3490   -1.3120    5.0760 O.co2 184  ASP184     -0.2456
     70  N         19.5310   -4.6550   10.0730 N.3   189  ASN189     -0.1240
     71  CA        20.2000   -5.6700    9.2630 C.3   189  ASN189      0.1653
     72  C         21.2010   -6.4860   10.0950 C.2   189  ASN189      0.2266
     73  O         22.3990   -6.2060   10.0940 O.2   189  ASN189     -0.2867
     74  CB        20.8980   -4.9860    8.0810 C.3   189  ASN189      0.1155
     75  CG        21.3340   -5.9670    6.9950 C.2   189  ASN189      0.2627
     76  OD1       21.1850   -7.1940    7.1220 O.2   189  ASN189     -0.2716
     77  ND2       21.8880   -5.4220    5.9160 N.am  189  ASN189     -0.0877
     78  N          9.6480    1.8200    0.4460 N.3   223  ASP223     -0.1239
     79  CA         9.7420    0.4420    0.8690 C.3   223  ASP223      0.1674
     80  C          9.1190    0.3230    2.2490 C.2   223  ASP223      0.2266
     81  O          7.9340    0.6110    2.4040 O.2   223  ASP223     -0.2867
     82  CB        11.1830   -0.0700    0.8320 C.3   223  ASP223      0.1410
     83  CG        11.2580   -1.5900    0.8440 C.2   223  ASP223      0.3668
     84  OD1       10.5260   -2.2160    0.0390 O.co2 223  ASP223     -0.2456
     85  OD2       12.0440   -2.1480    1.6500 O.co2 223  ASP223     -0.2456
     86  N         11.7860   -2.2900    9.0720 N.3   227  ASP227     -0.1239
     87  CA        12.0710   -3.6720    8.6710 C.3   227  ASP227      0.1674
     88  C         13.1990   -4.2810    9.5250 C.2   227  ASP227      0.2266
     89  O         14.1080   -3.5680    9.9690 O.2   227  ASP227     -0.2867
     90  CB        12.4830   -3.7130    7.1900 C.3   227  ASP227      0.1410
     91  CG        11.3090   -3.5410    6.2450 C.2   227  ASP227      0.3668
     92  OD1       10.1590   -3.5580    6.7070 O.co2 227  ASP227     -0.2456
     93  OD2       11.5300   -3.4090    5.0230 O.co2 227  ASP227     -0.2456
     94  N         15.7750   -7.9390    9.5200 N.3   229  SER229     -0.1202
     95  CA        16.2830   -8.8770    8.5170 C.3   229  SER229      0.2020
     96  C         17.5480   -9.5610    9.0080 C.2   229  SER229      0.2618
     97  O         18.2080   -9.0630    9.9280 O.2   229  SER229     -0.2717
     98  CB        16.6290   -8.0730    7.2550 C.3   229  SER229      0.2103
     99  OG        16.6400   -8.8870    6.1040 O.3   229  SER229     -0.2182
    100  N         17.8920  -10.6860    8.3790 N.am  230  ASN230     -0.1974
    101  CA        19.2050  -11.3590    8.5510 C.3   230  ASN230      0.1688
    102  C         19.6910  -11.5600    9.9850 C.2   230  ASN230      0.2292
    103  O         20.7890  -11.1410   10.3360 O.2   230  ASN230     -0.2864
    104  CB        20.3070  -10.6590    7.7360 C.3   230  ASN230      0.1181
    105  CG        20.0150  -10.6420    6.2450 C.2   230  ASN230      0.2629
    106  OD1       19.5870  -11.6490    5.6650 O.2   230  ASN230     -0.2716
    107  ND2       20.2300   -9.4860    5.6170 N.am  230  ASN230     -0.0877
    108  N          3.5570   -0.7360    2.8160 N.3   247  LYS247     -0.1245
    109  CA         4.1700   -1.8650    3.5560 C.3   247  LYS247      0.1561
    110  C          5.0020   -1.3660    4.7410 C.2   247  LYS247      0.2260
    111  O          6.0550   -0.7540    4.5520 O.2   247  LYS247     -0.2867
    112  CB         5.0410   -2.7370    2.6280 C.3   247  LYS247      0.0271
    113  CG         4.3510   -3.1730    1.3160 C.3   247  LYS247      0.0035
    114  CD         5.3270   -3.7560    0.2620 C.3   247  LYS247      0.0206
    115  CE         6.1980   -2.6630   -0.4250 C.3   247  LYS247      0.1093
    116  NZ         6.7310   -3.0530   -1.7870 N.3   247  LYS247     -0.1314
    117  N          8.2980   -5.5360    7.7700 N.3   250  ILE250     -0.1245
    118  CA         8.5930   -6.9040    7.3670 C.3   250  ILE250      0.1561
    119  C          9.7410   -7.4660    8.2140 C.2   250  ILE250      0.2260
    120  O         10.8760   -6.9920    8.1320 O.2   250  ILE250     -0.2867
    121  CB         8.8650   -6.9960    5.8390 C.3   250  ILE250      0.0252
    122  CG1        7.5930   -6.5840    5.0910 C.3   250  ILE250      0.0019
    123  CG2        9.3690   -8.4200    5.4390 C.3   250  ILE250      0.0019
    124  CD1        7.6580   -6.6740    3.5850 C.3   250  ILE250      0.0001
    125  N         13.1530  -11.4260    5.8280 N.3   253  SER253     -0.1202
    126  CA        13.0200  -11.0150    4.4390 C.3   253  SER253      0.2020
    127  C         12.8300  -12.1520    3.4140 C.2   253  SER253      0.2619
    128  O         12.5270  -11.8830    2.2460 O.2   253  SER253     -0.2717
    129  CB        14.2150  -10.1350    4.0510 C.3   253  SER253      0.2103
    130  OG        15.4290  -10.8740    4.0680 O.3   253  SER253     -0.2182
    131  N         12.9840  -13.4080    3.8390 N.am  254  SER254     -0.1951
    132  CA        13.0160  -14.5240    2.8820 C.3   254  SER254      0.1924
    133  C         12.6440  -15.8710    3.5100 C.2   254  SER254      0.2314
    134  O         13.1400  -16.2060    4.5900 O.2   254  SER254     -0.2863
    135  CB        14.4140  -14.5830    2.2220 C.3   254  SER254      0.2116
    136  OG        14.5850  -15.7360    1.4130 O.3   254  SER254     -0.2180
    137  N         15.7860  -17.9550    4.3350 N.3   257  LYS257     -0.1245
    138  CA        16.6840  -17.5900    5.4260 C.3   257  LYS257      0.1561
    139  C         16.2750  -18.3260    6.6990 C.2   257  LYS257      0.2260
    140  O         15.8470  -17.7230    7.6900 O.2   257  LYS257     -0.2867
    141  CB        16.7390  -16.0660    5.6120 C.3   257  LYS257      0.0271
    142  CG        17.9550  -15.4060    4.9460 C.3   257  LYS257      0.0035
    143  CD        17.5610  -14.2500    4.0420 C.3   257  LYS257      0.0206
    144  CE        18.7200  -13.8070    3.1350 C.3   257  LYS257      0.1093
    145  NZ        19.2310  -12.4210    3.4260 N.3   257  LYS257     -0.1314
    146  N         -0.6790   -2.8030    4.7580 N.3   278  GLN278     -0.1245
    147  CA        -0.3370   -4.1940    5.0510 C.3   278  GLN278      0.1566
    148  C          0.9340   -4.3030    5.8940 C.2   278  GLN278      0.2260
    149  O          1.6310   -3.2980    6.1060 O.2   278  GLN278     -0.2867
    150  CB        -0.1580   -4.9740    3.7360 C.3   278  GLN278      0.0367
    151  CG         0.9700   -4.4460    2.8300 C.3   278  GLN278      0.0905
    152  CD         0.9410   -5.0750    1.4370 C.2   278  GLN278      0.2608
    153  OE1        1.0670   -6.3000    1.2830 O.2   278  GLN278     -0.2717
    154  NE2        0.7770   -4.2370    0.4160 N.am  278  GLN278     -0.0878
    155  N          4.4410   -8.1240    9.1330 N.3   282  ARG282     -0.1245
    156  CA         4.5460   -9.4020    8.4160 C.3   282  ARG282      0.1563
    157  C          5.7530  -10.1820    8.9630 C.2   282  ARG282      0.2260
    158  O          6.8810   -9.6920    8.9080 O.2   282  ARG282     -0.2867
    159  CB         4.7080   -9.1640    6.9140 C.3   282  ARG282      0.0307
    160  CG         4.5930  -10.4240    6.0380 C.3   282  ARG282      0.0489
    161  CD         5.5540  -10.3520    4.8380 C.3   282  ARG282      0.2205
    162  NE         5.1900  -11.3340    3.8130 N.pl3 282  ARG282     -0.0865
    163  CZ         5.5040  -12.6280    3.8390 C.cat 282  ARG282      0.5346
    164  NH1        6.2190  -13.1550    4.8390 N.pl3 282  ARG282      0.1354
    165  NH2        5.0970  -13.4010    2.8510 N.pl3 282  ARG282      0.1354
    166  N          8.1770  -13.7620    9.4080 N.3   284  ARG284     -0.1245
    167  CA         8.6930  -15.0910    9.1250 C.3   284  ARG284      0.1563
    168  C          9.5150  -15.5170   10.3300 C.2   284  ARG284      0.2260
    169  O         10.2660  -14.6960   10.8860 O.2   284  ARG284     -0.2867
    170  CB         9.6130  -15.0830    7.8930 C.3   284  ARG284      0.0307
    171  CG         8.9130  -14.9840    6.5680 C.3   284  ARG284      0.0489
    172  CD         9.9180  -14.7020    5.4500 C.3   284  ARG284      0.2205
    173  NE         9.2590  -14.5930    4.1470 N.pl3 284  ARG284     -0.0865
    174  CZ         9.0090  -13.4530    3.4970 C.cat 284  ARG284      0.5346
    175  NH1        9.3810  -12.2740    3.9990 N.pl3 284  ARG284      0.1354
    176  NH2        8.3860  -13.4980    2.3290 N.pl3 284  ARG284      0.1354
    177  N         -4.3920   -5.9980    5.2830 N.3   308  TYR308     -0.1241
    178  CA        -4.3460   -6.7850    6.5280 C.3   308  TYR308      0.1605
    179  C         -3.4750   -6.1280    7.6040 C.2   308  TYR308      0.2264
    180  O         -2.7510   -5.1670    7.3340 O.2   308  TYR308     -0.2867
    181  CB        -3.8910   -8.2400    6.2710 C.3   308  TYR308      0.0534
    182  CG        -2.4180   -8.3750    5.9640 C.ar  308  TYR308     -0.0201
    183  CD1       -1.4810   -8.5210    6.9900 C.ar  308  TYR308     -0.0009
    184  CD2       -1.9520   -8.3430    4.6500 C.ar  308  TYR308     -0.0009
    185  CE1       -0.1290   -8.6260    6.7200 C.ar  308  TYR308      0.0417
    186  CE2       -0.5950   -8.4700    4.3680 C.ar  308  TYR308      0.0417
    187  CZ         0.3080   -8.6060    5.4080 C.ar  308  TYR308      0.1957
    188  OH         1.6490   -8.7340    5.1380 O.3   308  TYR308     -0.2866
    189  N          0.2380  -16.9040    4.9760 N.3   339  PHE339     -0.1241
    190  CA         1.1100  -17.2860    3.8680 C.3   339  PHE339      0.1605
    191  C          1.5610  -18.7170    4.0820 C.2   339  PHE339      0.2264
    192  O          1.4770  -19.2370    5.2020 O.2   339  PHE339     -0.2867
    193  CB         2.3100  -16.3320    3.7820 C.3   339  PHE339      0.0534
    194  CG         1.9070  -14.8900    3.5990 C.ar  339  PHE339     -0.0203
    195  CD1        1.6460  -14.3840    2.3250 C.ar  339  PHE339     -0.0042
    196  CD2        1.7650  -14.0470    4.6990 C.ar  339  PHE339     -0.0042
    197  CE1        1.2460  -13.0610    2.1440 C.ar  339  PHE339     -0.0003
    198  CE2        1.3690  -12.7240    4.5350 C.ar  339  PHE339     -0.0003
    199  CZ         1.1020  -12.2260    3.2590 C.ar  339  PHE339     -0.0000
@<TRIPOS>BOND
     1    30    29    2
     2    31    32    1
     3    19    20    1
     4    34    33    2
     5    29    28    1
     6    33    32    1
     7    32    35    1
     8    22    21    2
     9    20    21    1
    10    20    23    1
    11    21    27   am
    12    28    27    1
    13    23    24    1
    14    35    36    1
    15    37    36    2
    16    36    38   am
    17    39    40    1
    18    46    44   am
    19    24    26   ar
    20    24    25   ar
    21    42    41    2
    22    40    41    1
    23    40    43    1
    24    41    47   am
    25    44    43    1
    26    44    45    2
    27    52    51    1
    28    47    48    1
    29    48    51    1
    30    48    49    1
    31    61    59   am
    32    58    59    1
    33    58    57    1
    34    59    60    2
    35     1     2    1
    36    49    53   am
    37    49    50    2
    38    53    54    1
    39     5     2    1
    40     5     6    1
    41    57    54    1
    42   116   115    1
    43     2     3    1
    44     7     6    1
    45     7     8    1
    46    54    55    1
    47     3     4    2
    48     9     8    1
    49   115   114    1
    50    55    56    2
    51    84    83   ar
    52   114   113    1
    53   154   152   am
    54    78    79    1
    55    82    83    1
    56    82    79    1
    57    83    85   ar
    58    79    80    1
    59   153   152    2
    60   113   112    1
    61   136   135    1
    62   152   151    1
    63   197   195   ar
    64   197   199   ar
    65   135   132    1
    66   128   127    2
    67    80    81    2
    68   195   194   ar
    69   176   174    1
    70   112   109    1
    71   108   109    1
    72   151   150    1
    73   165   163    1
    74   132   133    1
    75   132   131    1
    76   144   145    1
    77   144   143    1
    78   199   198   ar
    79   127   131   am
    80   127   126    1
    81    62    63    1
    82   174   175    1
    83   174   173    2
    84   133   134    2
    85   109   110    1
    86   124   122    1
    87   194   193    1
    88   194   196   ar
    89   150   147    1
    90   193   190    1
    91   162   163    2
    92   162   161    1
    93   163   164    1
    94   190   191    1
    95   190   189    1
    96    68    67   ar
    97   143   142    1
    98   129   130    1
    99   129   126    1
   100   191   192    2
   101   173   172    1
   102   137   138    1
   103   186   184   ar
   104   186   187   ar
   105   126   125    1
   106   198   196   ar
   107   111   110    2
   108   184   182   ar
   109    63    64    1
   110    63    66    1
   111   146   147    1
   112    67    69   ar
   113    67    66    1
   114   161   160    1
   115   142   141    1
   116    93    91   ar
   117   147   148    1
   118   122   121    1
   119   188   187    1
   120    65    64    2
   121   177   178    1
   122   187   185   ar
   123   138   141    1
   124   138   139    1
   125   123   121    1
   126   172   171    1
   127   107   105   am
   128   106   105    2
   129   121   118    1
   130    17    16    2
   131   148   149    2
   132    77    75   am
   133   182   181    1
   134   182   183   ar
   135   160   159    1
   136    99    98    1
   137    18    16   am
   138   105   104    1
   139    91    92   ar
   140    91    90    1
   141   181   178    1
   142    16    15    1
   143   178   179    1
   144   171   170    1
   145   139   140    2
   146   185   183   ar
   147   159   156    1
   148    75    76    2
   149    75    74    1
   150    90    87    1
   151    98    95    1
   152   180   179    2
   153   118   117    1
   154   118   119    1
   155   104   101    1
   156    14    15    1
   157    14    11    1
   158   170   167    1
   159    74    71    1
   160   120   119    2
   161   100   101    1
   162   100    96   am
   163   156   157    1
   164   156   155    1
   165    95    96    1
   166    95    94    1
   167   101   102    1
   168    87    86    1
   169    87    88    1
   170   158   157    2
   171    10    11    1
   172    96    97    2
   173    11    12    1
   174   167   166    1
   175   167   168    1
   176    71    70    1
   177    71    72    1
   178    88    89    2
   179   102   103    2
   180    73    72    2
   181    12    13    2
   182   168   169    2
