@<TRIPOS>MOLECULE
tmp/2o1bA00.pdb
 133 123 0 0 0
SMALL
GASTEIGER

@<TRIPOS>ATOM
      1  N         17.2140  -20.8780   -7.9800 N.3    27  ILE27      -0.1245
      2  CA        16.5290  -19.5910   -7.9480 C.3    27  ILE27       0.1561
      3  C         17.3790  -18.3460   -8.1350 C.2    27  ILE27       0.2260
      4  O         18.3010  -18.0810   -7.3490 O.2    27  ILE27      -0.2867
      5  CB        15.7060  -19.4850   -6.6580 C.3    27  ILE27       0.0252
      6  CG1       14.3580  -20.1220   -6.9080 C.3    27  ILE27       0.0019
      7  CG2       15.5760  -18.0600   -6.1540 C.3    27  ILE27       0.0019
      8  CD1       13.6430  -20.3200   -5.6770 C.3    27  ILE27       0.0001
      9  N          2.7680  -24.5120   -5.6930 N.3    88  GLY88      -0.1210
     10  CA         4.1800  -24.7460   -5.9790 C.3    88  GLY88       0.1956
     11  C          4.2650  -26.0850   -6.6770 C.2    88  GLY88       0.2613
     12  O          3.5650  -27.0220   -6.2900 O.2    88  GLY88      -0.2717
     13  N          5.1220  -26.1920   -7.6920 N.am   89  THR89      -0.1938
     14  CA         5.1850  -27.4080   -8.5080 C.3    89  THR89       0.2028
     15  C          5.6920  -28.6300   -7.7610 C.2    89  THR89       0.2642
     16  O          5.3150  -29.7500   -8.1010 O.2    89  THR89      -0.2714
     17  CB         5.9990  -27.2380   -9.8230 C.3    89  THR89       0.1808
     18  OG1        7.3850  -26.9660   -9.5460 O.3    89  THR89      -0.2208
     19  CG2        5.4050  -26.1290  -10.6690 C.3    89  THR89       0.0379
     20  N          6.5460  -28.4260   -6.7580 N.am   90  LYS90      -0.1977
     21  CA         7.0410  -29.5450   -5.9560 C.3    90  LYS90       0.1596
     22  C          5.8640  -30.3890   -5.4500 C.2    90  LYS90       0.2287
     23  O          5.8540  -31.6180   -5.5810 O.2    90  LYS90      -0.2864
     24  CB         7.9180  -29.0520   -4.8010 C.3    90  LYS90       0.0298
     25  CG         8.5180  -30.1850   -3.9630 C.3    90  LYS90       0.0038
     26  CD         9.2250  -29.6650   -2.7220 C.3    90  LYS90       0.0206
     27  CE         9.7590  -30.8340   -1.8800 C.3    90  LYS90       0.1093
     28  NZ        10.7910  -30.3770   -0.9010 N.3    90  LYS90      -0.1314
     29  N          4.2970  -32.2830   -8.5100 N.3    93  LEU93      -0.1245
     30  CA         5.2390  -33.2940   -8.9870 C.3    93  LEU93       0.1561
     31  C          5.2770  -34.4930   -8.0670 C.2    93  LEU93       0.2260
     32  O          5.2610  -35.6240   -8.5400 O.2    93  LEU93      -0.2867
     33  CB         6.6540  -32.7190   -9.1560 C.3    93  LEU93       0.0270
     34  CG         6.8530  -31.7350  -10.3200 C.3    93  LEU93       0.0019
     35  CD1        8.0260  -30.8040  -10.0590 C.3    93  LEU93       0.0001
     36  CD2        7.0260  -32.4670  -11.6470 C.3    93  LEU93       0.0001
     37  N         16.3740  -34.5970  -11.1110 N.3   114  TYR114     -0.1241
     38  CA        15.9310  -33.8400   -9.9550 C.3   114  TYR114      0.1605
     39  C         15.6380  -34.7270   -8.7480 C.2   114  TYR114      0.2264
     40  O         15.1870  -35.8780   -8.8840 O.2   114  TYR114     -0.2867
     41  CB        14.7410  -32.9760  -10.3290 C.3   114  TYR114      0.0534
     42  CG        14.3880  -31.8950   -9.3440 C.ar  114  TYR114     -0.0201
     43  CD1       15.3060  -30.8930   -9.0080 C.ar  114  TYR114     -0.0009
     44  CD2       13.1060  -31.8280   -8.8000 C.ar  114  TYR114     -0.0009
     45  CE1       14.9710  -29.8850   -8.1170 C.ar  114  TYR114      0.0417
     46  CE2       12.7640  -30.8370   -7.9180 C.ar  114  TYR114      0.0417
     47  CZ        13.6950  -29.8560   -7.5910 C.ar  114  TYR114      0.1957
     48  OH        13.3390  -28.8600   -6.7140 O.3   114  TYR114     -0.2866
     49  N         12.7920  -33.9390  -17.6160 N.3   159  THR159     -0.1218
     50  CA        13.1140  -32.5980  -17.1370 C.3   159  THR159      0.1862
     51  C         14.0780  -31.9430  -18.1150 C.2   159  THR159      0.2287
     52  O         15.2610  -32.2830  -18.1350 O.2   159  THR159     -0.2866
     53  CB        13.8130  -32.6590  -15.7480 C.3   159  THR159      0.1770
     54  OG1       13.2270  -33.6920  -14.9400 O.3   159  THR159     -0.2211
     55  CG2       13.7270  -31.3220  -15.0330 C.3   159  THR159      0.0375
     56  N         17.6730  -30.4200  -14.3880 N.3   163  ASN163     -0.1240
     57  CA        18.3410  -30.0940  -13.1490 C.3   163  ASN163      0.1653
     58  C         18.8750  -31.4300  -12.6370 C.2   163  ASN163      0.2266
     59  O         18.0830  -32.2750  -12.2170 O.2   163  ASN163     -0.2867
     60  CB        17.3380  -29.4670  -12.1790 C.3   163  ASN163      0.1155
     61  CG        17.9870  -28.9480  -10.8870 C.2   163  ASN163      0.2627
     62  OD1       19.1380  -29.2520  -10.5770 O.2   163  ASN163     -0.2716
     63  ND2       17.2250  -28.1550  -10.1230 N.am  163  ASN163     -0.0877
     64  N          8.7480  -31.9690  -16.3380 N.3   191  ASP191     -0.1239
     65  CA         9.0010  -30.9180  -15.3420 C.3   191  ASP191      0.1674
     66  C          9.6850  -29.7320  -16.0200 C.2   191  ASP191      0.2266
     67  O         10.8840  -29.7580  -16.3060 O.2   191  ASP191     -0.2867
     68  CB         9.8810  -31.4970  -14.2290 C.3   191  ASP191      0.1410
     69  CG        10.1320  -30.5380  -13.0710 C.2   191  ASP191      0.3668
     70  OD1       10.7250  -31.0110  -12.0530 O.co2 191  ASP191     -0.2456
     71  OD2        9.7540  -29.3390  -13.1530 O.co2 191  ASP191     -0.2456
     72  N         10.1670  -26.5700  -15.0510 N.3   193  ALA193     -0.1231
     73  CA        10.5810  -25.5090  -14.1090 C.3   193  ALA193      0.1694
     74  C         11.4940  -24.4520  -14.7170 C.2   193  ALA193      0.2592
     75  O         11.4160  -23.2650  -14.3440 O.2   193  ALA193     -0.2718
     76  CB        11.2470  -26.1260  -12.8980 C.3   193  ALA193      0.0304
     77  N         12.3600  -24.8760  -15.6450 N.am  194  TYR194     -0.1976
     78  CA        13.3090  -23.9640  -16.2920 C.3   194  TYR194      0.1639
     79  C         12.9540  -23.6220  -17.7270 C.2   194  TYR194      0.2290
     80  O         13.8180  -23.2350  -18.5070 O.2   194  TYR194     -0.2864
     81  CB        14.7420  -24.4910  -16.1720 C.3   194  TYR194      0.0560
     82  CG        15.2500  -24.3860  -14.7540 C.ar  194  TYR194     -0.0198
     83  CD1       15.4110  -25.5230  -13.9670 C.ar  194  TYR194     -0.0009
     84  CD2       15.5190  -23.1370  -14.1850 C.ar  194  TYR194     -0.0009
     85  CE1       15.8590  -25.4210  -12.6540 C.ar  194  TYR194      0.0417
     86  CE2       15.9690  -23.0260  -12.8790 C.ar  194  TYR194      0.0417
     87  CZ        16.1340  -24.1670  -12.1220 C.ar  194  TYR194      0.1957
     88  OH        16.5790  -24.0530  -10.8220 O.3   194  TYR194     -0.2866
     89  N          6.3360  -23.7900  -13.4840 N.3   221  SER221     -0.1217
     90  CA         6.4590  -23.0580  -12.2290 C.3   221  SER221      0.1889
     91  C          6.6440  -21.5670  -12.4660 C.2   221  SER221      0.2288
     92  O          7.3310  -21.1720  -13.4050 O.2   221  SER221     -0.2866
     93  CB         7.6540  -23.5740  -11.4180 C.3   221  SER221      0.2089
     94  OG         7.7980  -22.8100  -10.2310 O.3   221  SER221     -0.2183
     95  N          8.0950  -19.8520  -10.0190 N.3   223  SER223     -0.1202
     96  CA         9.2010  -19.5910   -9.0870 C.3   223  SER223      0.2020
     97  C         10.4330  -18.9400   -9.7030 C.2   223  SER223      0.2618
     98  O         10.8690  -17.8680   -9.2560 O.2   223  SER223     -0.2717
     99  CB         9.6250  -20.8830   -8.3800 C.3   223  SER223      0.2103
    100  OG         8.6240  -21.3250   -7.4880 O.3   223  SER223     -0.2182
    101  N         11.0080  -19.5870  -10.7170 N.am  224  LYS224     -0.1979
    102  CA        12.2820  -19.1100  -11.2670 C.3   224  LYS224      0.1596
    103  C         12.0810  -18.0440  -12.3200 C.2   224  LYS224      0.2287
    104  O         12.6960  -16.9860  -12.2510 O.2   224  LYS224     -0.2864
    105  CB        13.1400  -20.2560  -11.8090 C.3   224  LYS224      0.0298
    106  CG        13.8850  -20.9790  -10.7100 C.3   224  LYS224      0.0038
    107  CD        13.3100  -22.3470  -10.4870 C.3   224  LYS224      0.0206
    108  CE        13.8690  -22.9120   -9.2120 C.3   224  LYS224      0.1093
    109  NZ        14.0220  -24.3850   -9.3450 N.3   224  LYS224     -0.1314
    110  N          9.6860  -17.5300   -6.0710 N.3   228  SER228     -0.1217
    111  CA         9.9260  -18.8650   -5.5140 C.3   228  SER228      0.1889
    112  C          9.2850  -19.1150   -4.1620 C.2   228  SER228      0.2288
    113  O          8.7650  -20.2130   -3.9050 O.2   228  SER228     -0.2866
    114  CB        11.4150  -19.1900   -5.4710 C.3   228  SER228      0.2089
    115  OG        12.1400  -18.2620   -4.6970 O.3   228  SER228     -0.2183
    116  N          4.9430  -19.9160   -3.8990 N.3   231  ARG231     -0.1231
    117  CA         4.3270  -21.2580   -3.9810 C.3   231  ARG231      0.1694
    118  C          3.1540  -21.3290   -4.9720 C.2   231  ARG231      0.2591
    119  O          1.9920  -21.5560   -4.5820 O.2   231  ARG231     -0.2718
    120  CB         3.8920  -21.7970   -2.5930 C.3   231  ARG231      0.0321
    121  CG         4.9440  -21.7720   -1.4560 C.3   231  ARG231      0.0489
    122  CD         6.3650  -22.0840   -1.9230 C.3   231  ARG231      0.2205
    123  NE         6.5030  -23.4370   -2.4570 N.pl3 231  ARG231     -0.0865
    124  CZ         7.1730  -23.7410   -3.5660 C.cat 231  ARG231      0.5346
    125  NH1        7.7460  -22.7810   -4.2830 N.pl3 231  ARG231      0.1354
    126  NH2        7.2410  -25.0110   -3.9710 N.pl3 231  ARG231      0.1354
    127  N          3.4630  -21.1530   -6.2600 N.am  232  VAL232     -0.1980
    128  CA         2.4480  -21.2010   -7.3110 C.3   232  VAL232      0.1595
    129  C          2.9960  -21.7620   -8.6280 C.2   232  VAL232      0.2287
    130  O          4.0710  -21.3760   -9.0910 O.2   232  VAL232     -0.2864
    131  CB         1.7870  -19.8110   -7.5370 C.3   232  VAL232      0.0276
    132  CG1        2.8200  -18.7700   -7.9560 C.3   232  VAL232      0.0022
    133  CG2        0.6630  -19.9200   -8.5640 C.3   232  VAL232      0.0022
@<TRIPOS>BOND
     1    80    79    2
     2    52    51    2
     3    51    50    1
     4    79    78    1
     5    49    50    1
     6    50    53    1
     7    64    65    1
     8    67    66    2
     9    78    81    1
    10    78    77    1
    11    81    82    1
    12    66    65    1
    13    53    55    1
    14    53    54    1
    15    77    74   am
    16    65    68    1
    17    72    73    1
    18    82    84   ar
    19    82    83   ar
    20    74    75    2
    21    74    73    1
    22    56    57    1
    23    68    69    1
    24    84    86   ar
    25    73    76    1
    26    83    85   ar
    27    89    90    1
    28    92    91    2
    29    71    69   ar
    30    57    58    1
    31    57    60    1
    32    69    70   ar
    33    86    87   ar
    34    85    87   ar
    35    58    59    2
    36    91    90    1
    37   103   104    2
    38   103   102    1
    39    90    93    1
    40    60    61    1
    41    87    88    1
    42   105   102    1
    43   105   106    1
    44    36    34    1
    45    93    94    1
    46   102   101    1
    47    37    38    1
    48    61    62    2
    49    61    63   am
    50   101    97   am
    51   106   107    1
    52    19    17    1
    53   107   108    1
    54    41    38    1
    55    41    42    1
    56    34    35    1
    57    34    33    1
    58    95    96    1
    59    38    39    1
    60    17    18    1
    61    17    14    1
    62    97    98    2
    63    97    96    1
    64   109   108    1
    65    42    43   ar
    66    42    44   ar
    67    33    30    1
    68   130   129    2
    69    96    99    1
    70    43    45   ar
    71    30    29    1
    72    30    31    1
    73    40    39    2
    74    44    46   ar
    75   129   128    1
    76   133   131    1
    77    32    31    2
    78    14    15    1
    79    14    13    1
    80    99   100    1
    81     3     2    1
    82     3     4    2
    83    45    47   ar
    84    16    15    2
    85     1     2    1
    86   132   131    1
    87     2     5    1
    88    46    47   ar
    89    15    20   am
    90    13    11   am
    91    47    48    1
    92   131   128    1
    93   128   127    1
    94     6     5    1
    95     6     8    1
    96    20    21    1
    97    11    12    2
    98    11    10    1
    99     5     7    1
   100   127   118   am
   101   110   111    1
   102    10     9    1
   103    21    22    1
   104    21    24    1
   105    23    22    2
   106   111   114    1
   107   111   112    1
   108   114   115    1
   109   118   119    2
   110   118   117    1
   111    24    25    1
   112   125   124    1
   113   112   113    2
   114   117   116    1
   115   117   120    1
   116   126   124    1
   117    25    26    1
   118   124   123    2
   119    26    27    1
   120   120   121    1
   121   123   122    1
   122   122   121    1
   123    27    28    1
