@<TRIPOS>MOLECULE
tmp/2o1dA00.pdb
 144 130 0 0 0
SMALL
GASTEIGER

@<TRIPOS>ATOM
      1  N          6.6770  -10.3250   -9.7380 N.3   173  ASP173     -0.1225
      2  CA         6.3020  -10.0190   -8.3560 C.3   173  ASP173      0.1805
      3  C          4.7780   -9.9260   -8.3000 C.2   173  ASP173      0.2598
      4  O          4.1940   -8.8710   -8.5450 O.2   173  ASP173     -0.2718
      5  CB         6.9780   -8.7270   -7.8680 C.3   173  ASP173      0.1424
      6  CG         6.6800   -8.4070   -6.4010 C.2   173  ASP173      0.3668
      7  OD1        5.8290   -9.0850   -5.7890 O.co2 173  ASP173     -0.2456
      8  OD2        7.2880   -7.4510   -5.8590 O.co2 173  ASP173     -0.2456
      9  N          4.1380  -11.0460   -7.9900 N.am  174  GLY174     -0.1957
     10  CA         2.6800  -11.1330   -8.0540 C.3   174  GLY174      0.1869
     11  C          2.2080  -11.4060   -9.4730 C.2   174  GLY174      0.2309
     12  O          3.0040  -11.3750  -10.4200 O.2   174  GLY174     -0.2863
     13  N          5.0580   -5.9660   -9.9990 N.3   178  ASN178     -0.1240
     14  CA         5.0960   -4.8600   -9.0410 C.3   178  ASN178      0.1653
     15  C          6.3730   -4.0770   -9.2120 C.2   178  ASN178      0.2266
     16  O          7.3870   -4.6110   -9.6770 O.2   178  ASN178     -0.2867
     17  CB         5.0130   -5.3680   -7.5920 C.3   178  ASN178      0.1155
     18  CG         3.5820   -5.5740   -7.1180 C.2   178  ASN178      0.2627
     19  OD1        2.7590   -4.6560   -7.1600 O.2   178  ASN178     -0.2716
     20  ND2        3.2840   -6.7780   -6.6460 N.am  178  ASN178     -0.0877
     21  N          9.3190   -2.2010   -7.1310 N.3   180  ASN180     -0.1240
     22  CA         9.9380   -2.2880   -5.8070 C.3   180  ASN180      0.1653
     23  C         11.0400   -1.2530   -5.6300 C.2   180  ASN180      0.2266
     24  O         11.8350   -1.0180   -6.5420 O.2   180  ASN180     -0.2867
     25  CB        10.4870   -3.6990   -5.5510 C.3   180  ASN180      0.1155
     26  CG         9.3890   -4.7330   -5.4550 C.2   180  ASN180      0.2627
     27  OD1        8.6700   -4.8000   -4.4530 O.2   180  ASN180     -0.2716
     28  ND2        9.2370   -5.5360   -6.5050 N.am  180  ASN180     -0.0877
     29  N         13.9760    0.6540   -2.6460 N.3   182  GLN182     -0.1245
     30  CA        15.0030    0.1740   -1.7210 C.3   182  GLN182      0.1566
     31  C         14.9830    0.7340   -0.2920 C.2   182  GLN182      0.2260
     32  O         15.4340    0.0600    0.6360 O.2   182  GLN182     -0.2867
     33  CB        16.3890    0.3680   -2.3400 C.3   182  GLN182      0.0367
     34  CG        16.6600   -0.5410   -3.5420 C.3   182  GLN182      0.0905
     35  CD        16.7440   -2.0070   -3.1490 C.2   182  GLN182      0.2608
     36  OE1       17.5730   -2.3940   -2.3230 O.2   182  GLN182     -0.2717
     37  NE2       15.8810   -2.8260   -3.7300 N.am  182  GLN182     -0.0878
     38  N         13.9290    2.0890    3.3650 N.3   184  ASP184     -0.1239
     39  CA        13.0480    2.0750    4.5270 C.3   184  ASP184      0.1674
     40  C         13.3540    3.3330    5.3220 C.2   184  ASP184      0.2266
     41  O         14.3840    3.9550    5.1060 O.2   184  ASP184     -0.2867
     42  CB        13.3370    0.8640    5.4360 C.3   184  ASP184      0.1410
     43  CG        13.3070   -0.4780    4.6970 C.2   184  ASP184      0.3668
     44  OD1       12.4610   -0.6690    3.8050 O.co2 184  ASP184     -0.2456
     45  OD2       14.1310   -1.3580    5.0360 O.co2 184  ASP184     -0.2456
     46  N          9.6090    1.8780    0.4190 N.3   223  ASP223     -0.1239
     47  CA         9.6810    0.4990    0.8220 C.3   223  ASP223      0.1674
     48  C          9.0650    0.3690    2.2080 C.2   223  ASP223      0.2266
     49  O          7.8790    0.6650    2.3810 O.2   223  ASP223     -0.2867
     50  CB        11.1190   -0.0240    0.7510 C.3   223  ASP223      0.1410
     51  CG        11.1810   -1.5310    0.7290 C.2   223  ASP223      0.3668
     52  OD1       10.3820   -2.1510   -0.0190 O.co2 223  ASP223     -0.2456
     53  OD2       12.0230   -2.0920    1.4640 O.co2 223  ASP223     -0.2456
     54  N         11.7270   -2.2130    8.9410 N.3   227  ASP227     -0.1239
     55  CA        11.9720   -3.5880    8.5060 C.3   227  ASP227      0.1674
     56  C         13.0740   -4.2320    9.3540 C.2   227  ASP227      0.2266
     57  O         13.9380   -3.5380    9.8940 O.2   227  ASP227     -0.2867
     58  CB        12.3680   -3.6270    7.0260 C.3   227  ASP227      0.1410
     59  CG        11.1820   -3.4440    6.0850 C.2   227  ASP227      0.3668
     60  OD1       10.0180   -3.4570    6.5460 O.co2 227  ASP227     -0.2456
     61  OD2       11.4190   -3.2810    4.8690 O.co2 227  ASP227     -0.2456
     62  N         15.6900   -7.7650    9.2420 N.3   229  SER229     -0.1217
     63  CA        16.2240   -8.8120    8.3640 C.3   229  SER229      0.1889
     64  C         17.4830   -9.4700    8.9030 C.2   229  SER229      0.2288
     65  O         18.1310   -8.9420    9.8080 O.2   229  SER229     -0.2866
     66  CB        16.6020   -8.2030    7.0110 C.3   229  SER229      0.2089
     67  OG        15.5000   -8.2430    6.1390 O.3   229  SER229     -0.2183
     68  N          3.7290   -0.6680    2.7550 N.3   247  LYS247     -0.1245
     69  CA         4.3030   -1.8380    3.4270 C.3   247  LYS247      0.1561
     70  C          5.0680   -1.3790    4.6570 C.2   247  LYS247      0.2260
     71  O          6.1530   -0.8160    4.5360 O.2   247  LYS247     -0.2867
     72  CB         5.2360   -2.5940    2.4670 C.3   247  LYS247      0.0271
     73  CG         4.5860   -2.9640    1.1290 C.3   247  LYS247      0.0035
     74  CD         5.6000   -3.5470    0.1250 C.3   247  LYS247      0.0206
     75  CE         6.4780   -2.4590   -0.5000 C.3   247  LYS247      0.1093
     76  NZ         7.1980   -2.9320   -1.7310 N.3   247  LYS247     -0.1314
     77  N          8.2310   -5.4320    7.6630 N.3   250  ILE250     -0.1245
     78  CA         8.5030   -6.8020    7.2510 C.3   250  ILE250      0.1561
     79  C          9.6580   -7.3660    8.0760 C.2   250  ILE250      0.2260
     80  O         10.7910   -6.8880    7.9870 O.2   250  ILE250     -0.2867
     81  CB         8.7440   -6.9020    5.7180 C.3   250  ILE250      0.0252
     82  CG1        7.3990   -6.7120    4.9890 C.3   250  ILE250      0.0019
     83  CG2        9.4290   -8.2460    5.3600 C.3   250  ILE250      0.0019
     84  CD1        7.4620   -6.6710    3.4740 C.3   250  ILE250      0.0001
     85  N         13.0280  -11.4050    5.7050 N.3   253  SER253     -0.1217
     86  CA        12.8890  -10.9700    4.3170 C.3   253  SER253      0.1889
     87  C         12.7840  -12.0960    3.2810 C.2   253  SER253      0.2288
     88  O         12.6170  -11.8170    2.0900 O.2   253  SER253     -0.2866
     89  CB        14.0460  -10.0430    3.9410 C.3   253  SER253      0.2089
     90  OG        15.2720  -10.7510    3.9460 O.3   253  SER253     -0.2183
     91  N         -0.4820   -2.7370    4.5970 N.3   278  GLN278     -0.1245
     92  CA        -0.1200   -4.1190    4.8910 C.3   278  GLN278      0.1566
     93  C          1.1510   -4.2450    5.7230 C.2   278  GLN278      0.2260
     94  O          1.8750   -3.2660    5.9160 O.2   278  GLN278     -0.2867
     95  CB         0.0470   -4.8990    3.5790 C.3   278  GLN278      0.0367
     96  CG         1.1580   -4.3860    2.6590 C.3   278  GLN278      0.0905
     97  CD         1.1350   -5.0940    1.3120 C.2   278  GLN278      0.2608
     98  OE1        1.0950   -6.3210    1.2510 O.2   278  GLN278     -0.2717
     99  NE2        1.1380   -4.3220    0.2290 N.am  278  GLN278     -0.0878
    100  N          4.4640   -8.1210    9.0280 N.3   282  ARG282     -0.1245
    101  CA         4.5250   -9.3890    8.3020 C.3   282  ARG282      0.1563
    102  C          5.7320  -10.1680    8.8450 C.2   282  ARG282      0.2260
    103  O          6.8750   -9.6910    8.7950 O.2   282  ARG282     -0.2867
    104  CB         4.6590   -9.1520    6.7960 C.3   282  ARG282      0.0307
    105  CG         4.5960  -10.4220    5.9440 C.3   282  ARG282      0.0489
    106  CD         5.4960  -10.3020    4.7110 C.3   282  ARG282      0.2205
    107  NE         5.1870  -11.3200    3.7000 N.pl3 282  ARG282     -0.0865
    108  CZ         5.5510  -12.6050    3.7570 C.cat 282  ARG282      0.5346
    109  NH1        6.2490  -13.0740    4.7930 N.pl3 282  ARG282      0.1354
    110  NH2        5.2060  -13.4320    2.7690 N.pl3 282  ARG282      0.1354
    111  N          8.1360  -13.6900    9.2070 N.3   284  ARG284     -0.1245
    112  CA         8.6510  -15.0380    8.9700 C.3   284  ARG284      0.1563
    113  C          9.4470  -15.4580   10.2060 C.2   284  ARG284      0.2260
    114  O         10.1900  -14.6440   10.7630 O.2   284  ARG284     -0.2867
    115  CB         9.5880  -15.0750    7.7460 C.3   284  ARG284      0.0307
    116  CG         8.9320  -14.7700    6.4070 C.3   284  ARG284      0.0489
    117  CD         9.9790  -14.6180    5.2920 C.3   284  ARG284      0.2205
    118  NE         9.3480  -14.5310    3.9730 N.pl3 284  ARG284     -0.0865
    119  CZ         9.0470  -13.4020    3.3310 C.cat 284  ARG284      0.5346
    120  NH1        9.3300  -12.2090    3.8500 N.pl3 284  ARG284      0.1354
    121  NH2        8.4630  -13.4710    2.1440 N.pl3 284  ARG284      0.1354
    122  N         -4.3100   -5.9870    5.1300 N.3   308  TYR308     -0.1241
    123  CA        -4.2540   -6.8310    6.3180 C.3   308  TYR308      0.1605
    124  C         -3.3990   -6.1780    7.4140 C.2   308  TYR308      0.2264
    125  O         -2.6060   -5.2830    7.1360 O.2   308  TYR308     -0.2867
    126  CB        -3.7460   -8.2420    5.9650 C.3   308  TYR308      0.0534
    127  CG        -2.2570   -8.3340    5.6690 C.ar  308  TYR308     -0.0201
    128  CD1       -1.3340   -8.4980    6.7090 C.ar  308  TYR308     -0.0009
    129  CD2       -1.7730   -8.2860    4.3560 C.ar  308  TYR308     -0.0009
    130  CE1        0.0230   -8.5810    6.4610 C.ar  308  TYR308      0.0417
    131  CE2       -0.4000   -8.3890    4.0930 C.ar  308  TYR308      0.0417
    132  CZ         0.4900   -8.5340    5.1610 C.ar  308  TYR308      0.1957
    133  OH         1.8470   -8.6370    4.9550 O.3   308  TYR308     -0.2866
    134  N          0.3690  -16.8390    4.8540 N.3   339  PHE339     -0.1241
    135  CA         1.2220  -17.2190    3.7360 C.3   339  PHE339      0.1605
    136  C          1.6420  -18.6660    3.9360 C.2   339  PHE339      0.2264
    137  O          1.5530  -19.1970    5.0490 O.2   339  PHE339     -0.2867
    138  CB         2.4420  -16.2890    3.6500 C.3   339  PHE339      0.0534
    139  CG         2.0830  -14.8300    3.5020 C.ar  339  PHE339     -0.0203
    140  CD1        1.8680  -14.2750    2.2380 C.ar  339  PHE339     -0.0042
    141  CD2        1.9370  -14.0150    4.6300 C.ar  339  PHE339     -0.0042
    142  CE1        1.5230  -12.9290    2.0930 C.ar  339  PHE339     -0.0003
    143  CE2        1.5970  -12.6690    4.5010 C.ar  339  PHE339     -0.0003
    144  CZ         1.3890  -12.1210    3.2300 C.ar  339  PHE339     -0.0000
@<TRIPOS>BOND
     1    12    11    2
     2    13    14    1
     3     1     2    1
     4    16    15    2
     5    11    10    1
     6    15    14    1
     7    14    17    1
     8     4     3    2
     9     2     3    1
    10     2     5    1
    11     3     9   am
    12    10     9    1
    13     5     6    1
    14    17    18    1
    15    19    18    2
    16    21    22    1
    17    18    20   am
    18    24    23    2
    19    28    26   am
    20     6     8   ar
    21     6     7   ar
    22    22    23    1
    23    22    25    1
    24    25    26    1
    25    26    27    2
    26    37    35   am
    27    34    35    1
    28    34    33    1
    29    35    36    2
    30    29    30    1
    31    33    30    1
    32    76    75    1
    33    30    31    1
    34    75    74    1
    35    31    32    2
    36    52    51   ar
    37    74    73    1
    38    99    97   am
    39    46    47    1
    40    51    50    1
    41    51    53   ar
    42    50    47    1
    43    47    48    1
    44    73    72    1
    45    98    97    2
    46    97    96    1
    47    88    87    2
    48   142   140   ar
    49   142   144   ar
    50   121   119    1
    51    48    49    2
    52   140   139   ar
    53    72    69    1
    54    96    95    1
    55    68    69    1
    56   110   108    1
    57   144   143   ar
    58    87    86    1
    59   119   120    1
    60   119   118    2
    61    38    39    1
    62    69    70    1
    63    84    82    1
    64   139   138    1
    65   139   141   ar
    66    95    92    1
    67   138   135    1
    68   107   108    2
    69   107   106    1
    70   135   136    1
    71   135   134    1
    72   108   109    1
    73    44    43   ar
    74   136   137    2
    75    89    90    1
    76    89    86    1
    77   118   117    1
    78   131   129   ar
    79   131   132   ar
    80    86    85    1
    81   129   127   ar
    82   143   141   ar
    83    39    40    1
    84    39    42    1
    85    71    70    2
    86    91    92    1
    87    43    45   ar
    88    43    42    1
    89   106   105    1
    90    61    59   ar
    91    92    93    1
    92   133   132    1
    93    82    81    1
    94    41    40    2
    95   122   123    1
    96   132   130   ar
    97   117   116    1
    98    83    81    1
    99   127   126    1
   100   127   128   ar
   101    81    78    1
   102    93    94    2
   103   105   104    1
   104   126   123    1
   105    59    60   ar
   106    59    58    1
   107    67    66    1
   108   123   124    1
   109   116   115    1
   110   130   128   ar
   111   104   101    1
   112    66    63    1
   113    58    55    1
   114   125   124    2
   115    78    77    1
   116    78    79    1
   117   115   112    1
   118    80    79    2
   119   101   102    1
   120   101   100    1
   121    63    64    1
   122    63    62    1
   123    55    54    1
   124    55    56    1
   125   103   102    2
   126    64    65    2
   127   112   111    1
   128   112   113    1
   129    56    57    2
   130   113   114    2
