@<TRIPOS>MOLECULE
tmp/2o1nA00.pdb
 142 136 0 0 0
SMALL
GASTEIGER

@<TRIPOS>ATOM
      1  N         10.9960   16.0770   -5.8430 N.3     2  LEU2       -0.1231
      2  CA         9.6180   16.5080   -5.7240 C.3     2  LEU2        0.1693
      3  C          8.7340   15.4790   -5.0270 C.2     2  LEU2        0.2591
      4  O          7.7260   15.8330   -4.4440 O.2     2  LEU2       -0.2718
      5  CB         9.0670   16.8280   -7.1120 C.3     2  LEU2        0.0284
      6  CG         8.5860   18.2720   -7.2850 C.3     2  LEU2        0.0019
      7  CD1        9.5600   19.2520   -6.6240 C.3     2  LEU2        0.0001
      8  CD2        8.4520   18.5740   -8.7690 C.3     2  LEU2        0.0001
      9  N          9.1060   14.2080   -5.0780 N.am    3  LEU3       -0.1980
     10  CA         8.3010   13.1760   -4.4330 C.3     3  LEU3        0.1596
     11  C          8.3790   13.2620   -2.9270 C.2     3  LEU3        0.2287
     12  O          7.4230   12.9760   -2.2150 O.2     3  LEU3       -0.2864
     13  CB         8.7610   11.7770   -4.8560 C.3     3  LEU3        0.0297
     14  CG         8.3270   11.3400   -6.2550 C.3     3  LEU3        0.0022
     15  CD1        6.8010   11.4190   -6.3680 C.3     3  LEU3        0.0001
     16  CD2        8.9800   12.2390   -7.2970 C.3     3  LEU3        0.0001
     17  N          9.6260   16.1550   -1.1390 N.3     5  PHE5       -0.1227
     18  CA         9.2110   17.4470   -0.6400 C.3     5  PHE5        0.1736
     19  C          7.7020   17.3270   -0.4420 C.2     5  PHE5        0.2596
     20  O          7.1520   17.7400    0.5810 O.2     5  PHE5       -0.2718
     21  CB         9.5580   18.5300   -1.6620 C.3     5  PHE5        0.0547
     22  CG         9.2320   19.9240   -1.2110 C.ar    5  PHE5       -0.0202
     23  CD1        9.3920   20.3030    0.1180 C.ar    5  PHE5       -0.0042
     24  CD2        8.7920   20.8680   -2.1220 C.ar    5  PHE5       -0.0042
     25  CE1        9.1170   21.6050    0.5320 C.ar    5  PHE5       -0.0003
     26  CE2        8.5160   22.1700   -1.7220 C.ar    5  PHE5       -0.0003
     27  CZ         8.6790   22.5390   -0.3890 C.ar    5  PHE5       -0.0000
     28  N          7.0460   16.7080   -1.4150 N.am    6  GLY6       -0.1957
     29  CA         5.6120   16.5290   -1.3400 C.3     6  GLY6        0.1869
     30  C          5.1830   15.7750   -0.0960 C.2     6  GLY6        0.2309
     31  O          4.4050   16.2820    0.7130 O.2     6  GLY6       -0.2863
     32  N          5.5230   17.7270    3.0330 N.3     9  ILE9       -0.1245
     33  CA         4.4590   18.7130    3.2150 C.3     9  ILE9        0.1561
     34  C          3.1850   18.1240    3.7990 C.2     9  ILE9        0.2260
     35  O          2.5520   18.7220    4.6620 O.2     9  ILE9       -0.2867
     36  CB         4.1110   19.3780    1.8800 C.3     9  ILE9        0.0252
     37  CG1        5.2740   20.2820    1.4600 C.3     9  ILE9        0.0019
     38  CG2        2.8050   20.1330    1.9960 C.3     9  ILE9        0.0019
     39  CD1        5.1140   20.9320    0.1160 C.3     9  ILE9        0.0001
     40  N          0.4410   18.5790   -1.0770 N.3    17  ALA17      -0.1231
     41  CA         1.2990   19.5270   -1.7320 C.3    17  ALA17       0.1694
     42  C          0.8340   19.8160   -3.1510 C.2    17  ALA17       0.2591
     43  O          0.9710   20.9440   -3.6240 O.2    17  ALA17      -0.2718
     44  CB         2.7350   19.0200   -1.7180 C.3    17  ALA17       0.0304
     45  N          0.2570   18.8570   -3.8670 N.am   18  ILE18      -0.1980
     46  CA        -0.2020   19.1220   -5.2390 C.3    18  ILE18       0.1595
     47  C         -1.3060   20.2690   -5.2030 C.2    18  ILE18       0.2287
     48  O         -0.9240   21.4070   -5.5180 O.2    18  ILE18      -0.2864
     49  CB        -0.6650   17.8220   -5.8900 C.3    18  ILE18       0.0276
     50  CG1        0.5140   17.0930   -6.5820 C.3    18  ILE18       0.0022
     51  CG2       -1.7820   18.0870   -6.8800 C.3    18  ILE18       0.0022
     52  CD1        1.5450   18.0160   -7.1920 C.3    18  ILE18       0.0001
     53  N         -0.1990   23.7080   -2.3200 N.3    21  TYR21      -0.1227
     54  CA         0.9410   24.6130   -2.4760 C.3    21  TYR21       0.1736
     55  C          1.5930   24.6310   -3.9130 C.2    21  TYR21       0.2596
     56  O          2.7470   25.0330   -4.0380 O.2    21  TYR21      -0.2718
     57  CB         2.0210   24.2590   -1.4170 C.3    21  TYR21       0.0548
     58  CG         1.5820   24.3740    0.0230 C.ar   21  TYR21      -0.0200
     59  CD1        1.1440   23.2540    0.7310 C.ar   21  TYR21      -0.0009
     60  CD2        1.6040   25.6030    0.6800 C.ar   21  TYR21      -0.0009
     61  CE1        0.7370   23.3550    2.0640 C.ar   21  TYR21       0.0417
     62  CE2        1.1980   25.7190    2.0080 C.ar   21  TYR21       0.0417
     63  CZ         0.7660   24.5890    2.6960 C.ar   21  TYR21       0.1957
     64  OH         0.3520   24.6950    4.0050 O.3    21  TYR21      -0.2866
     65  N          0.9010   24.1740   -5.0010 N.am   22  SER22      -0.1952
     66  CA         1.4780   24.1390   -6.4180 C.3    22  SER22       0.1924
     67  C          1.1370   25.3790   -7.2590 C.2    22  SER22       0.2314
     68  O          1.7650   25.6280   -8.2780 O.2    22  SER22      -0.2863
     69  CB         1.0650   22.8580   -7.1280 C.3    22  SER22       0.2116
     70  OG        -0.3400   22.8030   -7.2960 O.3    22  SER22      -0.2180
     71  N          4.8300   32.7790   -5.5140 N.3    27  TYR27      -0.1241
     72  CA         6.0170   31.9210   -5.5600 C.3    27  TYR27       0.1605
     73  C          5.8250   30.4320   -5.3650 C.2    27  TYR27       0.2264
     74  O          6.7540   29.6450   -5.5760 O.2    27  TYR27      -0.2867
     75  CB         7.0750   32.4060   -4.5650 C.3    27  TYR27       0.0534
     76  CG         7.7160   33.6940   -4.9920 C.ar   27  TYR27      -0.0201
     77  CD1        7.1400   34.9240   -4.6660 C.ar   27  TYR27      -0.0009
     78  CD2        8.8550   33.6840   -5.7890 C.ar   27  TYR27      -0.0009
     79  CE1        7.6790   36.1080   -5.1280 C.ar   27  TYR27       0.0417
     80  CE2        9.4030   34.8570   -6.2620 C.ar   27  TYR27       0.0417
     81  CZ         8.8140   36.0700   -5.9290 C.ar   27  TYR27       0.1957
     82  OH         9.3800   37.2320   -6.3990 O.3    27  TYR27      -0.2866
     83  N          5.0360   27.1110   -6.4670 N.3    29  GLY29      -0.1225
     84  CA         5.0350   26.2980   -7.6540 C.3    29  GLY29       0.1811
     85  C          5.6990   26.7650   -8.9550 C.2    29  GLY29       0.2280
     86  O          5.8730   25.9400   -9.8420 O.2    29  GLY29      -0.2866
     87  N          7.5080   29.9970    0.2160 N.3    44  CYS44      -0.1235
     88  CA         7.8790   29.5410   -1.1170 C.3    44  CYS44       0.1677
     89  C          9.0110   30.3920   -1.6600 C.2    44  CYS44       0.2270
     90  O          9.9810   29.8660   -2.2070 O.2    44  CYS44      -0.2867
     91  CB         6.6680   29.5790   -2.0590 C.3    44  CYS44       0.0956
     92  SG         5.3900   28.3630   -1.5950 S.3    44  CYS44      -0.0801
     93  N         12.1160   29.2880   -0.0850 N.3    47  HIS47      -0.1226
     94  CA        12.4420   27.9690   -0.5980 C.3    47  HIS47       0.1752
     95  C         13.0260   28.1230   -2.0000 C.2    47  HIS47       0.2596
     96  O         14.0440   27.5040   -2.3220 O.2    47  HIS47      -0.2718
     97  CB        11.1920   27.0880   -0.6270 C.3    47  HIS47       0.0759
     98  CG        11.4600   25.6730   -1.0460 C.ar   47  HIS47       0.0818
     99  ND1       10.9550   25.1350   -2.2100 N.ar   47  HIS47      -0.2268
    100  CD2       12.1830   24.6930   -0.4560 C.ar   47  HIS47       0.1154
    101  CE1       11.3580   23.8790   -2.3210 C.ar   47  HIS47       0.1986
    102  NE2       12.1040   23.5880   -1.2710 N.ar   47  HIS47      -0.2212
    103  N         12.4270   28.9170   -2.8330 N.am   48  ASP48      -0.1974
    104  CA        12.9460   29.0970   -4.1450 C.3    48  ASP48       0.1709
    105  C         14.3260   29.7360   -4.0740 C.2    48  ASP48       0.2293
    106  O         15.2160   29.4210   -4.8620 O.2    48  ASP48      -0.2864
    107  CB        12.0710   29.9830   -4.9890 C.3    48  ASP48       0.1436
    108  CG        10.8600   29.2680   -5.5820 C.2    48  ASP48       0.3671
    109  OD1       10.7010   28.0680   -5.3090 O.co2  48  ASP48      -0.2456
    110  OD2       10.0890   29.9220   -6.3280 O.co2  48  ASP48      -0.2456
    111  N         16.9520   27.0580   -3.1760 N.3    51  TYR51      -0.1241
    112  CA        17.4140   26.2630   -4.2950 C.3    51  TYR51       0.1605
    113  C         18.4200   27.0970   -5.0990 C.2    51  TYR51       0.2264
    114  O         19.3910   26.5690   -5.6440 O.2    51  TYR51      -0.2867
    115  CB        16.2270   25.8480   -5.1730 C.3    51  TYR51       0.0534
    116  CG        15.4020   24.6690   -4.6550 C.ar   51  TYR51      -0.0201
    117  CD1       15.7810   23.9490   -3.5100 C.ar   51  TYR51      -0.0009
    118  CD2       14.2520   24.2510   -5.3390 C.ar   51  TYR51      -0.0009
    119  CE1       15.0260   22.8380   -3.0640 C.ar   51  TYR51       0.0417
    120  CE2       13.4970   23.1520   -4.9080 C.ar   51  TYR51       0.0417
    121  CZ        13.8840   22.4500   -3.7750 C.ar   51  TYR51       0.1957
    122  OH        13.1170   21.3770   -3.3660 O.3    51  TYR51      -0.2866
    123  N         14.1560   19.3900   -8.0180 N.3    60  LYS60      -0.1245
    124  CA        12.9980   18.7100   -8.5430 C.3    60  LYS60       0.1561
    125  C         13.2220   17.1240   -8.7700 C.2    60  LYS60       0.2260
    126  O         12.2520   16.3950   -8.6030 O.2    60  LYS60      -0.2867
    127  CB        12.5380   19.5010   -9.7950 C.3    60  LYS60       0.0271
    128  CG        12.5680   21.0200   -9.6440 C.3    60  LYS60       0.0035
    129  CD        11.6020   21.5000   -8.5720 C.3    60  LYS60       0.0206
    130  CE        10.5980   22.5180   -9.1030 C.3    60  LYS60       0.1093
    131  NZ        10.2770   23.5700   -8.0990 N.3    60  LYS60      -0.1314
    132  N          5.6160   26.2360    6.2580 N.3    96  PHE96      -0.1241
    133  CA         4.2210   25.9320    5.9340 C.3    96  PHE96       0.1605
    134  C          3.4010   25.6200    7.1850 C.2    96  PHE96       0.2264
    135  O          2.3120   26.1600    7.3810 O.2    96  PHE96      -0.2867
    136  CB         4.1190   24.7330    4.9830 C.3    96  PHE96       0.0534
    137  CG         4.5160   25.0350    3.5700 C.ar   96  PHE96      -0.0203
    138  CD1        4.2600   26.2800    3.0110 C.ar   96  PHE96      -0.0042
    139  CD2        5.1140   24.0600    2.7830 C.ar   96  PHE96      -0.0042
    140  CE1        4.5920   26.5500    1.6950 C.ar   96  PHE96      -0.0003
    141  CE2        5.4490   24.3200    1.4620 C.ar   96  PHE96      -0.0003
    142  CZ         5.1870   25.5660    0.9200 C.ar   96  PHE96      -0.0000
@<TRIPOS>BOND
     1    86    85    2
     2   127   128    1
     3   127   124    1
     4   128   129    1
     5   130   129    1
     6   130   131    1
     7    85    84    1
     8   125   126    2
     9   125   124    1
    10     8     6    1
    11   124   123    1
    12    68    67    2
    13    84    83    1
    14    16    14    1
    15    70    69    1
    16     6     5    1
    17     6     7    1
    18    67    66    1
    19    52    50    1
    20    69    66    1
    21     5     2    1
    22    51    49    1
    23    50    49    1
    24    66    65    1
    25    82    81    1
    26    15    14    1
    27   110   108   ar
    28    80    81   ar
    29    80    78   ar
    30    14    13    1
    31    81    79   ar
    32    49    46    1
    33     1     2    1
    34    78    76   ar
    35     2     3    1
    36   114   113    2
    37   108   109   ar
    38   108   107    1
    39    74    73    2
    40    72    71    1
    41    72    73    1
    42    72    75    1
    43    48    47    2
    44   118   120   ar
    45   118   116   ar
    46    46    47    1
    47    46    45    1
    48   115   116    1
    49   115   112    1
    50    79    77   ar
    51   113   112    1
    52     9     3   am
    53     9    10    1
    54     3     4    2
    55    65    55   am
    56    76    77   ar
    57    76    75    1
    58   107   104    1
    59   120   121   ar
    60   106   105    2
    61    13    10    1
    62   116   117   ar
    63    10    11    1
    64   112   111    1
    65   104   105    1
    66   104   103    1
    67    56    55    2
    68    55    54    1
    69    45    42   am
    70   121   122    1
    71   121   119   ar
    72    43    42    2
    73   117   119   ar
    74    42    41    1
    75    11    12    2
    76   103    95   am
    77    54    53    1
    78    54    57    1
    79    96    95    2
    80   101    99   ar
    81   101   102   ar
    82    99    98   ar
    83    90    89    2
    84    24    26   ar
    85    24    22   ar
    86    91    92    1
    87    91    88    1
    88    95    94    1
    89    41    44    1
    90    41    40    1
    91    26    27   ar
    92    21    22    1
    93    21    18    1
    94    89    88    1
    95    57    58    1
    96    28    29    1
    97    28    19   am
    98    29    30    1
    99   102   100   ar
   100    22    23   ar
   101    17    18    1
   102    88    87    1
   103    98    97    1
   104    98   100   ar
   105    18    19    1
   106    97    94    1
   107    94    93    1
   108    19    20    2
   109    27    25   ar
   110    30    31    2
   111    58    60   ar
   112    58    59   ar
   113    39    37    1
   114    23    25   ar
   115    60    62   ar
   116    59    61   ar
   117   142   141   ar
   118   142   140   ar
   119    37    36    1
   120   141   139   ar
   121   140   138   ar
   122    36    38    1
   123    36    33    1
   124    62    63   ar
   125    61    63   ar
   126    63    64    1
   127   139   137   ar
   128   138   137   ar
   129    32    33    1
   130    33    34    1
   131   137   136    1
   132    34    35    2
   133   136   133    1
   134   133   132    1
   135   133   134    1
   136   134   135    2
