@<TRIPOS>MOLECULE
tmp/2o1oA00.pdb
 155 142 0 0 0
SMALL
GASTEIGER

@<TRIPOS>ATOM
      1  N        -21.0470    5.1660    4.4950 N.3    89  ILE89      -0.1231
      2  CA       -21.4140    5.7450    5.7940 C.3    89  ILE89       0.1692
      3  C        -20.3120    6.6700    6.2740 C.2    89  ILE89       0.2591
      4  O        -20.5740    7.7190    6.8730 O.2    89  ILE89      -0.2718
      5  CB       -21.7120    4.6150    6.8170 C.3    89  ILE89       0.0266
      6  CG1      -23.2090    4.1510    6.7220 C.3    89  ILE89       0.0019
      7  CG2      -21.3960    5.0510    8.2810 C.3    89  ILE89       0.0020
      8  CD1      -23.5280    2.8450    7.4070 C.3    89  ILE89       0.0001
      9  N        -19.0640    6.2880    5.9920 N.am   90  LEU90      -0.1980
     10  CA       -17.8810    7.0190    6.4640 C.3    90  LEU90       0.1596
     11  C        -17.5610    8.2320    5.6110 C.2    90  LEU90       0.2287
     12  O        -16.9380    9.1860    6.0930 O.2    90  LEU90      -0.2864
     13  CB       -16.6870    6.0510    6.5210 C.3    90  LEU90       0.0297
     14  CG       -16.7770    4.9460    7.5950 C.3    90  LEU90       0.0022
     15  CD1      -15.5590    4.0580    7.5430 C.3    90  LEU90       0.0001
     16  CD2      -16.9310    5.5550    8.9870 C.3    90  LEU90       0.0001
     17  N        -19.9440   10.7380    7.1380 N.3    93  ASP93      -0.1225
     18  CA       -19.3980   11.0350    8.4470 C.3    93  ASP93       0.1805
     19  C        -18.2300   12.0130    8.3750 C.2    93  ASP93       0.2597
     20  O        -18.0710   12.8450    9.2720 O.2    93  ASP93      -0.2718
     21  CB       -18.9420    9.7410    9.1190 C.3    93  ASP93       0.1424
     22  CG       -18.3070    9.9850   10.4710 C.2    93  ASP93       0.3668
     23  OD1      -19.0250   10.3370   11.4350 O.co2  93  ASP93      -0.2456
     24  OD2      -17.0760    9.8100   10.6060 O.co2  93  ASP93      -0.2456
     25  N        -17.4240   11.8980    7.3210 N.am   94  ASP94      -0.1974
     26  CA       -16.2430   12.7370    7.1380 C.3    94  ASP94       0.1709
     27  C        -16.6150   14.1450    6.6890 C.2    94  ASP94       0.2293
     28  O        -15.8950   15.1090    6.9540 O.2    94  ASP94      -0.2864
     29  CB       -15.3010   12.0870    6.1250 C.3    94  ASP94       0.1436
     30  CG       -14.5920   10.8660    6.6860 C.2    94  ASP94       0.3671
     31  OD1      -14.3090   10.8690    7.9040 O.co2  94  ASP94      -0.2456
     32  OD2      -14.3210    9.9210    5.9150 O.co2  94  ASP94      -0.2456
     33  N        -18.1820   15.7580    9.8350 N.3    97  ASP97      -0.1239
     34  CA       -17.1280   15.8840   10.8260 C.3    97  ASP97       0.1674
     35  C        -15.8610   16.5650   10.3040 C.2    97  ASP97       0.2266
     36  O        -14.8620   16.7120   11.0190 O.2    97  ASP97      -0.2867
     37  CB       -16.8000   14.4800   11.3700 C.3    97  ASP97       0.1410
     38  CG       -17.9840   13.8600   12.1240 C.2    97  ASP97       0.3668
     39  OD1      -19.0490   14.5030   12.1960 O.co2  97  ASP97      -0.2456
     40  OD2      -17.8700   12.7270   12.6350 O.co2  97  ASP97      -0.2456
     41  N         -8.9020    9.0470    5.7050 N.3   102  ARG102     -0.1245
     42  CA        -9.6690    7.8650    5.8950 C.3   102  ARG102      0.1563
     43  C         -9.0360    6.7490    5.0970 C.2   102  ARG102      0.2260
     44  O         -8.7850    6.8980    3.9270 O.2   102  ARG102     -0.2867
     45  CB       -11.0820    8.1150    5.4230 C.3   102  ARG102      0.0307
     46  CG       -12.0450    6.9970    5.6600 C.3   102  ARG102      0.0489
     47  CD       -12.3010    6.7140    7.1150 C.3   102  ARG102      0.2205
     48  NE       -13.2080    7.6550    7.7390 N.pl3 102  ARG102     -0.0865
     49  CZ       -13.6420    7.5740    8.9840 C.cat 102  ARG102      0.5346
     50  NH1      -14.4480    8.4770    9.4460 N.pl3 102  ARG102      0.1354
     51  NH2      -13.2740    6.5980    9.7600 N.pl3 102  ARG102      0.1354
     52  N        -28.2690    3.4710   12.8020 N.3   158  THR158     -0.1218
     53  CA       -27.0510    4.2610   12.6220 C.3   158  THR158      0.1862
     54  C        -27.3880    5.7150   12.3070 C.2   158  THR158      0.2287
     55  O        -26.7360    6.6310   12.8140 O.2   158  THR158     -0.2866
     56  CB       -26.1620    3.6530   11.5100 C.3   158  THR158      0.1770
     57  OG1      -25.8860    2.2840   11.8530 O.3   158  THR158     -0.2211
     58  CG2      -24.8170    4.3710   11.4240 C.3   158  THR158      0.0375
     59  N        -26.2640    8.7910   14.4110 N.3   162  GLN162     -0.1245
     60  CA       -25.5050    9.9230   13.8900 C.3   162  GLN162      0.1566
     61  C        -26.1850   11.2600   14.1970 C.2   162  GLN162      0.2260
     62  O        -25.5270   12.3030   14.2730 O.2   162  GLN162     -0.2867
     63  CB       -25.2930    9.7770   12.3830 C.3   162  GLN162      0.0367
     64  CG       -24.2020    8.7850   12.0100 C.3   162  GLN162      0.0905
     65  CD       -22.8080    9.2700   12.3600 C.2   162  GLN162      0.2608
     66  OE1      -22.2890    8.9750   13.4300 O.2   162  GLN162     -0.2717
     67  NE2      -22.1830   10.0150   11.4610 N.am  162  GLN162     -0.0878
     68  N        -25.3200   12.1280   17.5110 N.3   165  ASP165     -0.1239
     69  CA       -23.8950   12.4580   17.4780 C.3   165  ASP165      0.1674
     70  C        -23.7150   13.9160   17.0750 C.2   165  ASP165      0.2266
     71  O        -22.7520   14.5900   17.4470 O.2   165  ASP165     -0.2867
     72  CB       -23.1600   11.5280   16.5170 C.3   165  ASP165      0.1410
     73  CG       -21.6610   11.7430   16.5110 C.2   165  ASP165      0.3668
     74  OD1      -21.1840   12.6910   15.8630 O.co2 165  ASP165     -0.2456
     75  OD2      -20.9490   10.9510   17.1530 O.co2 165  ASP165     -0.2456
     76  N        -25.5300    4.4540   16.7180 N.3   188  LYS188     -0.1231
     77  CA       -24.6800    4.8220   15.5940 C.3   188  LYS188      0.1693
     78  C        -23.6060    3.8090   15.2740 C.2   188  LYS188      0.2592
     79  O        -23.1940    3.7440   14.1100 O.2   188  LYS188     -0.2718
     80  CB       -24.0230    6.1930   15.8250 C.3   188  LYS188      0.0285
     81  CG       -22.6860    6.1030   16.5760 C.3   188  LYS188      0.0035
     82  CD       -21.8880    7.3950   16.4290 C.3   188  LYS188      0.0206
     83  CE       -20.4440    7.1550   16.9350 C.3   188  LYS188      0.1093
     84  NZ       -19.7620    8.4870   17.1770 N.3   188  LYS188     -0.1314
     85  N        -23.1150    3.0240   16.2400 N.am  189  THR189     -0.1953
     86  CA       -22.0180    2.1050   15.9280 C.3   189  THR189      0.1897
     87  C        -22.3750    0.6250   16.0600 C.2   189  THR189      0.2313
     88  O        -22.1500   -0.1560   15.1380 O.2   189  THR189     -0.2863
     89  CB       -20.7950    2.3880   16.8290 C.3   189  THR189      0.1794
     90  OG1      -20.3870    3.7520   16.6590 O.3   189  THR189     -0.2208
     91  CG2      -19.6250    1.5110   16.4070 C.3   189  THR189      0.0378
     92  N        -24.6030   -1.4930   13.0310 N.3   192  TYR192     -0.1241
     93  CA       -24.1270   -1.7950   11.6810 C.3   192  TYR192      0.1605
     94  C        -22.7190   -2.3840   11.6640 C.2   192  TYR192      0.2264
     95  O        -22.3660   -3.1250   10.7440 O.2   192  TYR192     -0.2867
     96  CB       -24.1860   -0.5370   10.8020 C.3   192  TYR192      0.0534
     97  CG       -22.9100    0.2640   10.6890 C.ar  192  TYR192     -0.0201
     98  CD1      -22.6050    1.2460   11.6110 C.ar  192  TYR192     -0.0009
     99  CD2      -22.0030    0.0530    9.6480 C.ar  192  TYR192     -0.0009
    100  CE1      -21.4420    1.9880   11.5130 C.ar  192  TYR192      0.0417
    101  CE2      -20.8340    0.7870    9.5550 C.ar  192  TYR192      0.0417
    102  CZ       -20.5580    1.7510   10.4910 C.ar  192  TYR192      0.1957
    103  OH       -19.3940    2.4830   10.3910 O.3   192  TYR192     -0.2866
    104  N        -16.0330    1.6910   19.3400 N.3   229  GLN229     -0.1245
    105  CA       -16.2120    3.1410   19.2850 C.3   229  GLN229      0.1566
    106  C        -15.5170    3.8370   20.4450 C.2   229  GLN229      0.2260
    107  O        -14.9670    4.9350   20.2990 O.2   229  GLN229     -0.2867
    108  CB       -17.7030    3.4860   19.2630 C.3   229  GLN229      0.0367
    109  CG       -18.0220    4.9560   19.0290 C.3   229  GLN229      0.0905
    110  CD       -17.3850    5.4900   17.7590 C.2   229  GLN229      0.2608
    111  OE1      -17.6920    5.0200   16.6370 O.2   229  GLN229     -0.2717
    112  NE2      -16.4630    6.4410   17.9220 N.am  229  GLN229     -0.0878
    113  N        -12.0730    4.3050   19.4060 N.3   232  ASN232     -0.1225
    114  CA       -12.0510    5.3800   18.4190 C.3   232  ASN232      0.1785
    115  C        -11.9880    6.7380   19.1130 C.2   232  ASN232      0.2597
    116  O        -11.2540    7.6470   18.6930 O.2   232  ASN232     -0.2718
    117  CB       -13.2830    5.3160   17.5140 C.3   232  ASN232      0.1169
    118  CG       -13.3290    6.4670   16.5150 C.2   232  ASN232      0.2627
    119  OD1      -14.1820    7.3630   16.5870 O.2   232  ASN232     -0.2716
    120  ND2      -12.3890    6.4740   15.5680 N.am  232  ASN232     -0.0877
    121  N        -12.7750    6.8820   20.1720 N.am  233  ASP233     -0.1974
    122  CA       -12.8270    8.1540   20.8890 C.3   233  ASP233      0.1709
    123  C        -11.5220    8.4320   21.6410 C.2   233  ASP233      0.2293
    124  O        -10.9890    9.5410   21.6110 O.2   233  ASP233     -0.2864
    125  CB       -14.0130    8.1680   21.8580 C.3   233  ASP233      0.1436
    126  CG       -15.3340    8.1680   21.1470 C.2   233  ASP233      0.3671
    127  OD1      -15.3440    8.5650   19.9620 O.co2 233  ASP233     -0.2456
    128  OD2      -16.3480    7.7690   21.7710 O.co2 233  ASP233     -0.2456
    129  N         -8.7840    9.4600   19.4880 N.3   236  ASP236     -0.1239
    130  CA        -8.9030   10.8390   19.0190 C.3   236  ASP236      0.1674
    131  C         -8.2770   11.7810   20.0540 C.2   236  ASP236      0.2266
    132  O         -7.5940   12.7400   19.7240 O.2   236  ASP236     -0.2867
    133  CB       -10.3560   11.2110   18.7440 C.3   236  ASP236      0.1410
    134  CG       -10.4940   12.4050   17.8120 C.2   236  ASP236      0.3668
    135  OD1      -10.0370   13.5210   18.1920 O.co2 236  ASP236     -0.2456
    136  OD2      -11.0620   12.1900   16.6700 O.co2 236  ASP236     -0.2456
    137  N        -12.0740   16.5950   17.7650 N.3   246  ASP246     -0.1239
    138  CA       -13.2150   16.1400   18.5320 C.3   246  ASP246      0.1674
    139  C        -13.6210   17.0000   19.7000 C.2   246  ASP246      0.2266
    140  O        -14.7470   16.9050   20.2020 O.2   246  ASP246     -0.2867
    141  CB       -12.8960   14.7070   19.0150 C.3   246  ASP246      0.1410
    142  CG       -14.0680   13.7440   18.9190 C.2   246  ASP246      0.3668
    143  OD1      -14.8450   13.6870   19.9120 O.co2 246  ASP246     -0.2456
    144  OD2      -14.2110   13.0680   17.8590 O.co2 246  ASP246     -0.2456
    145  N        -14.7810   20.3340   17.9980 N.3   249  ARG249     -0.1245
    146  CA       -16.1240   19.8870   17.6930 C.3   249  ARG249      0.1563
    147  C        -16.7500   19.3820   18.9950 C.2   249  ARG249      0.2260
    148  O        -16.2670   18.3980   19.5590 O.2   249  ARG249     -0.2867
    149  CB       -16.1280   18.8040   16.6190 C.3   249  ARG249      0.0307
    150  CG       -15.2870   19.1200   15.3860 C.3   249  ARG249      0.0489
    151  CD       -15.6350   18.1720   14.2370 C.3   249  ARG249      0.2205
    152  NE       -15.6340   16.7840   14.6840 N.pl3 249  ARG249     -0.0865
    153  CZ       -14.6310   15.9290   14.5450 C.cat 249  ARG249      0.5346
    154  NH1      -13.4890   16.2840   13.9630 N.pl3 249  ARG249      0.1354
    155  NH2      -14.7810   14.6930   15.0050 N.pl3 249  ARG249      0.1354
@<TRIPOS>BOND
     1    44    43    2
     2     1     2    1
     3    43    42    1
     4    45    46    1
     5    45    42    1
     6    11    12    2
     7    11    10    1
     8    46    47    1
     9    41    42    1
    10     2     3    1
    11     2     5    1
    12    32    30   ar
    13     9     3   am
    14     9    10    1
    15    29    30    1
    16    29    26    1
    17     3     4    2
    18    10    13    1
    19    13    14    1
    20    30    31   ar
    21    27    28    2
    22    27    26    1
    23     6     5    1
    24     6     8    1
    25     5     7    1
    26    47    48    1
    27    26    25    1
    28    17    18    1
    29    25    19   am
    30    15    14    1
    31    14    16    1
    32    48    49    2
    33    19    18    1
    34    19    20    2
    35    18    21    1
    36    49    50    1
    37    49    51    1
    38    21    22    1
    39   101    99   ar
    40   101   102   ar
    41    99    97   ar
    42    33    34    1
    43    35    34    1
    44    35    36    2
    45   103   102    1
    46    22    24   ar
    47    22    23   ar
    48   102   100   ar
    49    97    96    1
    50    97    98   ar
    51    95    94    2
    52    96    93    1
    53    34    37    1
    54    37    38    1
    55    58    56    1
    56    67    65   am
    57    56    57    1
    58    56    53    1
    59   100    98   ar
    60    94    93    1
    61    93    92    1
    62    64    65    1
    63    64    63    1
    64    38    39   ar
    65    38    40   ar
    66    54    53    1
    67    54    55    2
    68    65    66    2
    69    63    60    1
    70    53    52    1
    71    60    61    1
    72    60    59    1
    73   154   153    1
    74    79    78    2
    75    61    62    2
    76   151   152    1
    77   151   150    1
    78   153   152    2
    79   153   155    1
    80    88    87    2
    81    78    77    1
    82    78    85   am
    83   150   149    1
    84   120   118   am
    85    77    80    1
    86    77    76    1
    87    80    81    1
    88    74    73   ar
    89    86    87    1
    90    86    85    1
    91    86    89    1
    92    91    89    1
    93    82    81    1
    94    82    83    1
    95    73    72    1
    96    73    75   ar
    97   118   119    2
    98   118   117    1
    99    72    69    1
   100   149   146    1
   101   111   110    2
   102    90    89    1
   103   136   134   ar
   104    83    84    1
   105    70    71    2
   106    70    69    1
   107    69    68    1
   108   117   114    1
   109   146   145    1
   110   146   147    1
   111   110   112   am
   112   110   109    1
   113   137   138    1
   114   134   135   ar
   115   134   133    1
   116   144   142   ar
   117   114   115    1
   118   114   113    1
   119   138   141    1
   120   138   139    1
   121   116   115    2
   122   133   130    1
   123   142   141    1
   124   142   143   ar
   125   147   148    2
   126   130   129    1
   127   130   131    1
   128   109   108    1
   129   115   121   am
   130   108   105    1
   131   105   104    1
   132   105   106    1
   133   139   140    2
   134   132   131    2
   135   127   126   ar
   136   121   122    1
   137   107   106    2
   138   122   123    1
   139   122   125    1
   140   126   128   ar
   141   126   125    1
   142   124   123    2
