@<TRIPOS>MOLECULE
tmp/2o1qA00.pdb
 93 89 0 0 0
SMALL
GASTEIGER

@<TRIPOS>ATOM
      1  N         31.8250   13.4330   -5.7410 N.3     8  GLU8       -0.1245
      2  CA        31.4660   12.4090   -4.7690 C.3     8  GLU8        0.1567
      3  C         30.0590   11.8940   -4.9960 C.2     8  GLU8        0.2260
      4  O         29.1960   12.6000   -5.5090 O.2     8  GLU8       -0.2867
      5  CB        31.5350   12.9480   -3.3480 C.3     8  GLU8        0.0388
      6  CG        32.8410   13.6160   -3.0040 C.3     8  GLU8        0.1160
      7  CD        32.7910   14.4050   -1.7030 C.2     8  GLU8        0.3649
      8  OE1       31.8140   14.3100   -0.9080 O.co2   8  GLU8       -0.2457
      9  OE2       33.7540   15.1480   -1.4690 O.co2   8  GLU8       -0.2457
     10  N         27.2830    9.1700   -2.7300 N.3    10  VAL10      -0.1245
     11  CA        26.9890    8.3510   -1.5760 C.3    10  VAL10       0.1561
     12  C         25.6640    7.6330   -1.8060 C.2    10  VAL10       0.2260
     13  O         24.6300    8.3150   -1.9840 O.2    10  VAL10      -0.2867
     14  CB        26.8440    9.1840   -0.2470 C.3    10  VAL10       0.0252
     15  CG1       26.3530    8.2940    0.9280 C.3    10  VAL10       0.0019
     16  CG2       28.1330    9.9110    0.0560 C.3    10  VAL10       0.0019
     17  N         24.5030    3.1520    3.8750 N.3    14  VAL14      -0.1245
     18  CA        25.2260    3.8100    4.9440 C.3    14  VAL14       0.1561
     19  C         24.2960    3.6610    6.1340 C.2    14  VAL14       0.2260
     20  O         23.1380    3.9640    6.0190 O.2    14  VAL14      -0.2867
     21  CB        25.4870    5.2930    4.5940 C.3    14  VAL14       0.0252
     22  CG1       25.9690    6.0950    5.8300 C.3    14  VAL14       0.0019
     23  CG2       26.4890    5.4200    3.3790 C.3    14  VAL14       0.0019
     24  N         23.7180    6.4970   12.4540 N.3    17  LYS17      -0.1245
     25  CA        24.4700    6.5440   13.7060 C.3    17  LYS17       0.1561
     26  C         23.7010    7.4050   14.7090 C.2    17  LYS17       0.2260
     27  O         23.0360    8.3400   14.3520 O.2    17  LYS17      -0.2867
     28  CB        25.9150    7.1070   13.5210 C.3    17  LYS17       0.0271
     29  CG        26.9000    6.2300   12.7550 C.3    17  LYS17       0.0035
     30  CD        28.3430    6.6770   12.9820 C.3    17  LYS17       0.0206
     31  CE        29.3340    5.7580   12.3040 C.3    17  LYS17       0.1093
     32  NZ        29.3640    6.0300   10.8490 N.3    17  LYS17      -0.1314
     33  N         26.2240   11.5920    8.0610 N.3    32  LEU32      -0.1231
     34  CA        26.9940   12.6260    7.4310 C.3    32  LEU32       0.1693
     35  C         27.2280   12.2730    5.9780 C.2    32  LEU32       0.2592
     36  O         27.6400   11.1910    5.6710 O.2    32  LEU32      -0.2718
     37  CB        28.3310   12.8210    8.1300 C.3    32  LEU32       0.0284
     38  CG        29.2260   13.9610    7.6360 C.3    32  LEU32       0.0019
     39  CD1       28.4610   15.2650    7.8240 C.3    32  LEU32       0.0001
     40  CD2       30.5430   13.9620    8.3940 C.3    32  LEU32       0.0001
     41  N         26.9300   13.2170    5.0920 N.am   33  LEU33      -0.1966
     42  CA        26.9640   12.9650    3.6620 C.3    33  LEU33       0.1728
     43  C         28.1760   13.6040    2.9970 C.2    33  LEU33       0.2616
     44  O         28.7650   13.0390    2.0480 O.2    33  LEU33      -0.2715
     45  CB        25.6990   13.4790    3.0290 C.3    33  LEU33       0.0311
     46  CG        24.4100   12.7720    3.4770 C.3    33  LEU33       0.0022
     47  CD1       23.1950   13.5280    2.8820 C.3    33  LEU33       0.0001
     48  CD2       24.4260   11.2670    3.1490 C.3    33  LEU33       0.0001
     49  N         28.6060   14.7440    3.5190 N.am   34  HIS34      -0.1959
     50  CA        29.6950   15.4850    2.8670 C.3    34  HIS34       0.1787
     51  C         30.2880   16.5110    3.8070 C.2    34  HIS34       0.2620
     52  O         29.5560   17.1680    4.5820 O.2    34  HIS34      -0.2715
     53  CB        29.2110   16.1660    1.5780 C.3    34  HIS34       0.0785
     54  CG        30.2110   17.1050    0.9720 C.ar   34  HIS34       0.0821
     55  ND1       31.2270   16.6850    0.1480 N.ar   34  HIS34      -0.2267
     56  CD2       30.3360   18.4400    1.0750 C.ar   34  HIS34       0.1154
     57  CE1       31.9730   17.7280   -0.1840 C.ar   34  HIS34       0.1986
     58  NE2       31.4310   18.8110    0.3440 N.ar   34  HIS34      -0.2212
     59  N         31.5830   16.7190    3.7180 N.am   35  VAL35      -0.1977
     60  CA        32.2320   17.8860    4.2860 C.3    35  VAL35       0.1596
     61  C         33.0930   18.5590    3.2090 C.2    35  VAL35       0.2287
     62  O         33.7590   17.8290    2.4510 O.2    35  VAL35      -0.2864
     63  CB        33.0510   17.5890    5.5670 C.3    35  VAL35       0.0276
     64  CG1       32.1570   16.9910    6.6820 C.3    35  VAL35       0.0022
     65  CG2       34.3270   16.7570    5.2500 C.3    35  VAL35       0.0022
     66  N         32.8270   15.4530   10.9230 N.3   134  GLN134     -0.1245
     67  CA        33.5310   14.3700   10.2830 C.3   134  GLN134      0.1566
     68  C         34.0910   13.4570   11.3370 C.2   134  GLN134      0.2260
     69  O         34.0830   12.2630   11.1720 O.2   134  GLN134     -0.2867
     70  CB        34.5890   14.8800    9.3140 C.3   134  GLN134      0.0367
     71  CG        35.2420   13.8030    8.4740 C.3   134  GLN134      0.0905
     72  CD        36.4070   14.3340    7.6530 C.2   134  GLN134      0.2608
     73  OE1       37.3520   14.9380    8.1970 O.2   134  GLN134     -0.2717
     74  NE2       36.3970   14.0270    6.3950 N.am  134  GLN134     -0.0878
     75  N         31.3620   11.3740   12.9990 N.3   137  TRP137     -0.1227
     76  CA        30.8420   10.3970   12.0580 C.3   137  TRP137      0.1737
     77  C         31.7680    9.2260   11.8310 C.2   137  TRP137      0.2595
     78  O         31.3320    8.0650   11.8240 O.2   137  TRP137     -0.2718
     79  CB        30.6600   11.0600   10.6950 C.3   137  TRP137      0.0564
     80  CG        30.1650   10.1270    9.6320 C.ar  137  TRP137      0.0003
     81  CD1       30.7870    9.8010    8.5060 C.ar  137  TRP137      0.0946
     82  CD2       28.9080    9.4390    9.6140 C.ar  137  TRP137      0.0152
     83  NE1       29.9900    8.9840    7.7400 N.ar  137  TRP137     -0.2442
     84  CE2       28.8730    8.6600    8.4420 C.ar  137  TRP137      0.0810
     85  CE3       27.8550    9.3440   10.5080 C.ar  137  TRP137      0.0012
     86  CZ2       27.7750    7.8650    8.1030 C.ar  137  TRP137      0.0191
     87  CZ3       26.7650    8.5610   10.1630 C.ar  137  TRP137      0.0001
     88  CH2       26.7480    7.8190    9.0120 C.ar  137  TRP137      0.0015
     89  N         33.0500    9.5270   11.6860 N.am  138  ALA138     -0.1980
     90  CA        34.0130    8.6570   11.0150 C.3   138  ALA138      0.1597
     91  C         35.1860    8.2540   11.8940 C.2   138  ALA138      0.2287
     92  O         35.8810    7.2920   11.5580 O.2   138  ALA138     -0.2864
     93  CB        34.5520    9.3760    9.7610 C.3   138  ALA138      0.0319
@<TRIPOS>BOND
     1     1     2    1
     2     4     3    2
     3     3     2    1
     4     2     5    1
     5     5     6    1
     6     6     7    1
     7    10    11    1
     8    13    12    2
     9    12    11    1
    10     7     9   ar
    11     7     8   ar
    12    11    14    1
    13    14    16    1
    14    14    15    1
    15    57    55   ar
    16    57    58   ar
    17    55    54   ar
    18    58    56   ar
    19    54    56   ar
    20    54    53    1
    21    53    50    1
    22    44    43    2
    23    62    61    2
    24    50    49    1
    25    50    51    1
    26    47    46    1
    27    43    49   am
    28    43    42    1
    29    45    46    1
    30    45    42    1
    31    48    46    1
    32    61    60    1
    33    23    21    1
    34    42    41    1
    35    59    51   am
    36    59    60    1
    37    51    52    2
    38    17    18    1
    39    60    63    1
    40    21    18    1
    41    21    22    1
    42    18    19    1
    43    41    35   am
    44    65    63    1
    45    63    64    1
    46    36    35    2
    47    35    34    1
    48    20    19    2
    49    74    72   am
    50    34    33    1
    51    34    37    1
    52    38    39    1
    53    38    37    1
    54    38    40    1
    55    72    73    2
    56    72    71    1
    57    83    84   ar
    58    83    81   ar
    59    86    84   ar
    60    86    88   ar
    61    84    82   ar
    62    71    70    1
    63    81    80   ar
    64    88    87   ar
    65    70    67    1
    66    82    80   ar
    67    82    85   ar
    68    80    79    1
    69    93    90    1
    70    87    85   ar
    71    67    66    1
    72    67    68    1
    73    79    76    1
    74    32    31    1
    75    90    89    1
    76    90    91    1
    77    69    68    2
    78    92    91    2
    79    89    77   am
    80    78    77    2
    81    77    76    1
    82    76    75    1
    83    31    30    1
    84    24    25    1
    85    29    30    1
    86    29    28    1
    87    28    25    1
    88    25    26    1
    89    27    26    2
