@<TRIPOS>MOLECULE
tmp/2o1sC00.pdb
 186 176 0 0 0
SMALL
GASTEIGER

@<TRIPOS>ATOM
      1  N         39.8990   39.7380   45.2220 N.3    47  HIS47      -0.1241
      2  CA        40.7540   40.4430   46.1670 C.3    47  HIS47       0.1621
      3  C         42.0270   39.7390   46.6590 C.2    47  HIS47       0.2264
      4  O         42.8350   40.3460   47.3660 O.2    47  HIS47      -0.2867
      5  CB        39.8920   40.9060   47.3480 C.3    47  HIS47       0.0745
      6  CG        38.8500   41.9080   46.9590 C.ar   47  HIS47       0.0817
      7  ND1       37.7980   42.2560   47.7790 N.ar   47  HIS47      -0.2268
      8  CD2       38.7130   42.6560   45.8360 C.ar   47  HIS47       0.1154
      9  CE1       37.0580   43.1750   47.1800 C.ar   47  HIS47       0.1986
     10  NE2       37.5920   43.4360   46.0010 N.ar   47  HIS47      -0.2212
     11  N         44.7830   41.8670   45.0490 N.3    50  SER50      -0.1217
     12  CA        45.1490   43.1400   45.6490 C.3    50  SER50       0.1889
     13  C         45.9650   42.8720   46.9090 C.2    50  SER50       0.2288
     14  O         46.8840   43.6250   47.2390 O.2    50  SER50      -0.2866
     15  CB        43.8920   43.9470   45.9790 C.3    50  SER50       0.2089
     16  OG        42.9220   43.1500   46.6400 O.3    50  SER50      -0.2183
     17  N         39.6960   50.8020   52.8110 N.3    76  VAL76      -0.1245
     18  CA        38.9260   49.9560   51.8970 C.3    76  VAL76       0.1561
     19  C         38.9360   48.5050   52.4050 C.2    76  VAL76       0.2260
     20  O         37.8790   47.9070   52.6240 O.2    76  VAL76      -0.2867
     21  CB        39.4610   49.9990   50.4570 C.3    76  VAL76       0.0252
     22  CG1       38.5680   49.1470   49.5640 C.3    76  VAL76       0.0019
     23  CG2       39.4810   51.4290   49.9520 C.3    76  VAL76       0.0019
     24  N         40.2020   45.7600   50.8390 N.3    78  HIS78      -0.1226
     25  CA        40.2100   44.6970   49.8490 C.3    78  HIS78       0.1752
     26  C         41.6340   44.1520   49.7250 C.2    78  HIS78       0.2595
     27  O         41.8710   43.1860   49.0090 O.2    78  HIS78      -0.2718
     28  CB        39.7450   45.2310   48.4990 C.3    78  HIS78       0.0759
     29  CG        40.7130   46.1810   47.8730 C.ar   78  HIS78       0.0818
     30  ND1       41.0280   47.3990   48.4350 N.ar   78  HIS78      -0.2268
     31  CD2       41.4780   46.0710   46.7590 C.ar   78  HIS78       0.1154
     32  CE1       41.9470   47.9980   47.6960 C.ar   78  HIS78       0.1986
     33  NE2       42.2380   47.2130   46.6730 N.ar   78  HIS78      -0.2212
     34  N         42.5760   44.7740   50.4290 N.am   79  GLN79      -0.1979
     35  CA        43.9690   44.3440   50.3750 C.3    79  GLN79       0.1601
     36  C         44.4060   43.7620   51.7120 C.2    79  GLN79       0.2287
     37  O         45.6070   43.6280   51.9730 O.2    79  GLN79      -0.2864
     38  CB        44.8820   45.5290   50.0150 C.3    79  GLN79       0.0394
     39  CG        45.1900   46.5140   51.1660 C.3    79  GLN79       0.0908
     40  CD        43.9790   47.3160   51.6340 C.2    79  GLN79       0.2608
     41  OE1       42.9320   46.7540   51.9460 O.2    79  GLN79      -0.2717
     42  NE2       44.1270   48.6410   51.6950 N.am   79  GLN79      -0.0878
     43  N         34.9660   49.4150   53.7650 N.3   119  GLY119     -0.1210
     44  CA        34.3230   48.9440   52.5480 C.3   119  GLY119      0.1956
     45  C         34.4010   50.1320   51.6180 C.2   119  GLY119      0.2612
     46  O         35.0180   50.0800   50.5490 O.2   119  GLY119     -0.2717
     47  N         33.7570   51.2180   52.0290 N.am  120  HIS120     -0.1961
     48  CA        33.8420   52.4490   51.2660 C.3   120  HIS120      0.1787
     49  C         35.2810   52.8650   51.5330 C.2   120  HIS120      0.2620
     50  O         35.8720   52.4580   52.5350 O.2   120  HIS120     -0.2715
     51  CB        32.8750   53.5090   51.8040 C.3   120  HIS120      0.0785
     52  CG        31.4520   53.2900   51.3910 C.ar  120  HIS120      0.0821
     53  ND1       30.4780   54.2570   51.5240 N.ar  120  HIS120     -0.2267
     54  CD2       30.8400   52.2100   50.8510 C.ar  120  HIS120      0.1154
     55  CE1       29.3280   53.7800   51.0840 C.ar  120  HIS120      0.1986
     56  NE2       29.5200   52.5400   50.6700 N.ar  120  HIS120     -0.2212
     57  N         35.8450   53.6760   50.6550 N.am  121  SER121     -0.1950
     58  CA        37.2240   54.0980   50.8130 C.3   121  SER121      0.1924
     59  C         37.4080   55.4230   51.5250 C.2   121  SER121      0.2314
     60  O         36.4460   56.1250   51.8410 O.2   121  SER121     -0.2863
     61  CB        37.8690   54.2220   49.4440 C.3   121  SER121      0.2116
     62  OG        37.3120   55.3270   48.7620 O.3   121  SER121     -0.2180
     63  N         45.4170   53.4570   50.0560 N.3   149  GLY149     -0.1210
     64  CA        45.8270   53.3390   48.6650 C.3   149  GLY149      0.1956
     65  C         45.9140   54.6640   47.9410 C.2   149  GLY149      0.2612
     66  O         45.3700   55.6710   48.4030 O.2   149  GLY149     -0.2717
     67  N         46.6100   54.6690   46.8090 N.am  150  ASP150     -0.1959
     68  CA        46.7710   55.8830   46.0150 C.3   150  ASP150      0.1840
     69  C         45.4310   56.3320   45.4400 C.2   150  ASP150      0.2623
     70  O         45.2070   57.5190   45.2190 O.2   150  ASP150     -0.2715
     71  CB        47.7680   55.6490   44.8730 C.3   150  ASP150      0.1450
     72  CG        47.3960   54.4600   44.0150 C.2   150  ASP150      0.3671
     73  OD1       47.4630   53.3220   44.5210 O.co2 150  ASP150     -0.2456
     74  OD2       47.0290   54.6590   42.8400 O.co2 150  ASP150     -0.2456
     75  N         44.5460   55.3740   45.1880 N.am  151  GLY151     -0.1940
     76  CA        43.2400   55.7110   44.6610 C.3   151  GLY151      0.2014
     77  C         42.3400   56.2300   45.7660 C.2   151  GLY151      0.2638
     78  O         41.5750   57.1670   45.5630 O.2   151  GLY151     -0.2714
     79  N         42.4400   55.6300   46.9470 N.am  152  ALA152     -0.1977
     80  CA        41.6170   56.0430   48.0720 C.3   152  ALA152      0.1597
     81  C         42.0030   57.4070   48.6500 C.2   152  ALA152      0.2287
     82  O         41.1420   58.1290   49.1680 O.2   152  ALA152     -0.2864
     83  CB        41.6560   54.9800   49.1690 C.3   152  ALA152      0.0319
     84  N         49.9450   53.2950   50.1940 N.3   174  ASN174     -0.1240
     85  CA        50.2060   52.0840   49.4360 C.3   174  ASN174      0.1653
     86  C         49.9230   52.4150   47.9700 C.2   174  ASN174      0.2266
     87  O         48.8310   52.1780   47.4540 O.2   174  ASN174     -0.2867
     88  CB        49.3070   50.9560   49.9330 C.3   174  ASN174      0.1155
     89  CG        49.4730   49.6940   49.1290 C.2   174  ASN174      0.2627
     90  OD1       50.5660   49.4010   48.6440 O.2   174  ASN174     -0.2716
     91  ND2       48.3960   48.9270   48.9950 N.am  174  ASN174     -0.0877
     92  N         50.4200   51.7750   44.1920 N.3   176  ASN176     -0.1240
     93  CA        50.7780   50.8050   43.1640 C.3   176  ASN176      0.1653
     94  C         50.5050   51.4160   41.7860 C.2   176  ASN176      0.2266
     95  O         50.2590   50.7080   40.8070 O.2   176  ASN176     -0.2867
     96  CB        49.9960   49.4940   43.3400 C.3   176  ASN176      0.1155
     97  CG        48.5050   49.7120   43.4760 C.2   176  ASN176      0.2627
     98  OD1       47.9860   50.7560   43.0900 O.2   176  ASN176     -0.2716
     99  ND2       47.8020   48.7140   44.0170 N.am  176  ASN176     -0.0877
    100  N         51.0550   46.2570   41.0510 N.3   220  LYS220     -0.1245
    101  CA        49.6110   46.2000   40.8240 C.3   220  LYS220      0.1561
    102  C         49.1640   44.8020   40.4270 C.2   220  LYS220      0.2260
    103  O         48.0730   44.3640   40.7870 O.2   220  LYS220     -0.2867
    104  CB        49.2120   47.1750   39.7090 C.3   220  LYS220      0.0271
    105  CG        48.2520   48.2910   40.1330 C.3   220  LYS220      0.0035
    106  CD        46.8170   47.8020   40.3320 C.3   220  LYS220      0.0206
    107  CE        45.9300   48.9120   40.9150 C.3   220  LYS220      0.1093
    108  NZ        46.0230   50.1880   40.1350 N.3   220  LYS220     -0.1314
    109  N         42.0320   43.0860   39.6310 N.3   224  TYR224     -0.1241
    110  CA        40.9360   42.2990   40.1800 C.3   224  TYR224      0.1605
    111  C         39.6030   42.8220   39.6430 C.2   224  TYR224      0.2264
    112  O         39.5100   43.9560   39.1900 O.2   224  TYR224     -0.2867
    113  CB        40.9650   42.3700   41.7160 C.3   224  TYR224      0.0534
    114  CG        40.9150   43.7840   42.2660 C.ar  224  TYR224     -0.0201
    115  CD1       39.7050   44.4670   42.3810 C.ar  224  TYR224     -0.0009
    116  CD2       42.0870   44.4620   42.6080 C.ar  224  TYR224     -0.0009
    117  CE1       39.6620   45.7970   42.8180 C.ar  224  TYR224      0.0417
    118  CE2       42.0560   45.7900   43.0430 C.ar  224  TYR224      0.0417
    119  CZ        40.8410   46.4510   43.1410 C.ar  224  TYR224      0.1957
    120  OH        40.8050   47.7690   43.5270 O.3   224  TYR224     -0.2866
    121  N         33.8120   46.0030   41.9370 N.3   227  ALA227     -0.1245
    122  CA        32.6190   45.7560   42.7480 C.3   227  ALA227      0.1562
    123  C         31.3240   45.9410   41.9600 C.2   227  ALA227      0.2260
    124  O         31.3400   46.4220   40.8270 O.2   227  ALA227     -0.2867
    125  CB        32.6230   46.6760   43.9600 C.3   227  ALA227      0.0290
    126  N         32.8790   58.1040   39.2520 N.3   253  PRO253     -0.2102
    127  CA        33.8350   58.3910   40.3220 C.3   253  PRO253      0.1504
    128  C         34.7610   57.1740   40.4500 C.2   253  PRO253      0.2575
    129  O         34.6020   56.3550   41.3590 O.2   253  PRO253     -0.2718
    130  CB        32.9480   58.5760   41.5660 C.3   253  PRO253      0.0282
    131  CG        31.5240   58.6040   41.0330 C.3   253  PRO253      0.0208
    132  CD        31.5850   57.7100   39.8260 C.3   253  PRO253      0.0893
    133  N         35.6930   57.0410   39.5080 N.am  254  ALA254     -0.1980
    134  CA        36.6710   55.9480   39.5070 C.3   254  ALA254      0.1597
    135  C         36.1220   54.5330   39.3390 C.2   254  ALA254      0.2287
    136  O         36.7440   53.5700   39.7820 O.2   254  ALA254     -0.2864
    137  CB        37.5110   56.0180   40.7780 C.3   254  ALA254      0.0319
    138  N         38.0900   58.9490   42.9450 N.3   275  ILE275     -0.1245
    139  CA        37.1390   58.5530   43.9800 C.3   275  ILE275      0.1561
    140  C         36.5620   59.7700   44.6780 C.2   275  ILE275      0.2260
    141  O         36.8390   60.0330   45.8530 O.2   275  ILE275     -0.2867
    142  CB        37.8080   57.6310   44.9970 C.3   275  ILE275      0.0252
    143  CG1       38.5610   56.5220   44.2560 C.3   275  ILE275      0.0019
    144  CG2       36.7660   57.0270   45.9000 C.3   275  ILE275      0.0019
    145  CD1       39.1470   55.4560   45.1680 C.3   275  ILE275      0.0001
    146  N         32.7990   61.0910   44.7040 N.3   277  GLU277     -0.1245
    147  CA        31.3740   61.1220   44.4030 C.3   277  GLU277      0.1567
    148  C         30.7980   62.5330   44.5420 C.2   277  GLU277      0.2260
    149  O         29.9050   62.9240   43.7880 O.2   277  GLU277     -0.2867
    150  CB        30.6010   60.1870   45.3380 C.3   277  GLU277      0.0388
    151  CG        30.8240   58.6810   45.1420 C.3   277  GLU277      0.1160
    152  CD        32.2080   58.1960   45.5530 C.2   277  GLU277      0.3649
    153  OE1       32.9290   58.9300   46.2520 O.co2 277  GLU277     -0.2457
    154  OE2       32.5770   57.0630   45.1850 O.co2 277  GLU277     -0.2457
    155  N         27.5550   54.1240   46.9060 N.3   302  PHE302     -0.1241
    156  CA        28.4760   55.2580   46.8480 C.3   302  PHE302      0.1605
    157  C         27.7630   56.5950   46.6750 C.2   302  PHE302      0.2264
    158  O         28.3160   57.6410   47.0070 O.2   302  PHE302     -0.2867
    159  CB        29.4960   55.0880   45.7170 C.3   302  PHE302      0.0534
    160  CG        30.2910   53.8120   45.7950 C.ar  302  PHE302     -0.0203
    161  CD1       30.7860   53.3530   47.0170 C.ar  302  PHE302     -0.0042
    162  CD2       30.5480   53.0710   44.6470 C.ar  302  PHE302     -0.0042
    163  CE1       31.5200   52.1830   47.0980 C.ar  302  PHE302     -0.0003
    164  CE2       31.2840   51.8940   44.7140 C.ar  302  PHE302     -0.0003
    165  CZ        31.7720   51.4470   45.9460 C.ar  302  PHE302     -0.0000
    166  N         27.5130   59.1640   49.5370 N.3   305  ARG305     -0.1245
    167  CA        28.5180   60.1690   49.8430 C.3   305  ARG305      0.1563
    168  C         28.3060   61.5070   49.1160 C.2   305  ARG305      0.2260
    169  O         28.9530   62.5070   49.4320 O.2   305  ARG305     -0.2867
    170  CB        29.9040   59.5910   49.5280 C.3   305  ARG305      0.0307
    171  CG        31.0700   60.4880   49.9050 C.3   305  ARG305      0.0489
    172  CD        32.4040   59.7370   49.8740 C.3   305  ARG305      0.2205
    173  NE        32.4430   58.6670   50.8690 N.pl3 305  ARG305     -0.0865
    174  CZ        33.5460   58.0300   51.2450 C.cat 305  ARG305      0.5346
    175  NH1       34.7170   58.3520   50.7140 N.pl3 305  ARG305      0.1354
    176  NH2       33.4770   57.0680   52.1530 N.pl3 305  ARG305      0.1354
    177  N         28.6860   47.4720   50.9820 N.3   338  HIS338     -0.1241
    178  CA        28.3640   47.8800   49.6060 C.3   338  HIS338      0.1621
    179  C         26.9110   47.7460   49.1230 C.2   338  HIS338      0.2264
    180  O         26.6490   47.9420   47.9330 O.2   338  HIS338     -0.2867
    181  CB        29.2440   47.1070   48.6140 C.3   338  HIS338      0.0745
    182  CG        30.7030   47.4290   48.7040 C.ar  338  HIS338      0.0817
    183  ND1       31.5050   47.5610   47.5880 N.ar  338  HIS338     -0.2268
    184  CD2       31.5090   47.6380   49.7710 C.ar  338  HIS338      0.1154
    185  CE1       32.7390   47.8420   47.9680 C.ar  338  HIS338      0.1986
    186  NE2       32.7680   47.8950   49.2870 N.ar  338  HIS338     -0.2212
@<TRIPOS>BOND
     1   112   111    2
     2   126   132    1
     3   126   127    1
     4   135   134    1
     5   135   136    2
     6   134   133    1
     7   134   137    1
     8   133   128   am
     9   109   110    1
    10   111   110    1
    11   104   105    1
    12   104   101    1
    13   132   131    1
    14   105   106    1
    15   108   107    1
    16   110   113    1
    17   127   128    1
    18   127   130    1
    19   106   107    1
    20   102   103    2
    21   102   101    1
    22   128   129    2
    23    95    94    2
    24   101   100    1
    25   124   123    2
    26   131   130    1
    27   113   114    1
    28    94    93    1
    29   121   122    1
    30   123   122    1
    31   114   115   ar
    32   114   116   ar
    33   115   117   ar
    34   116   118   ar
    35   122   125    1
    36   117   119   ar
    37    74    72   ar
    38   138   139    1
    39   118   119   ar
    40    98    97    2
    41   119   120    1
    42    93    96    1
    43    93    92    1
    44    96    97    1
    45    97    99   am
    46   149   148    2
    47   139   140    1
    48   139   142    1
    49    72    73   ar
    50    72    71    1
    51   143   142    1
    52   143   145    1
    53   147   148    1
    54   147   146    1
    55   147   150    1
    56   162   164   ar
    57   162   160   ar
    58    76    75    1
    59    76    77    1
    60   140   141    2
    61   164   165   ar
    62    71    68    1
    63   142   144    1
    64    11    12    1
    65   151   150    1
    66   151   152    1
    67   154   152   ar
    68    75    69   am
    69    70    69    2
    70     1     2    1
    71    69    68    1
    72   152   153   ar
    73    78    77    2
    74    12    15    1
    75    12    13    1
    76   159   160    1
    77   159   156    1
    78    77    79   am
    79   160   161   ar
    80     8    10   ar
    81     8     6   ar
    82   165   163   ar
    83    15    16    1
    84    10     9   ar
    85    68    67    1
    86     2     3    1
    87     2     5    1
    88     3     4    2
    89    33    31   ar
    90    33    32   ar
    91   157   156    1
    92   157   158    2
    93    31    29   ar
    94    67    65   am
    95   156   155    1
    96    13    14    2
    97    79    80    1
    98     6     5    1
    99     6     7   ar
   100   161   163   ar
   101     9     7   ar
   102    87    86    2
   103   183   185   ar
   104   183   182   ar
   105    32    30   ar
   106    29    30   ar
   107    29    28    1
   108   180   179    2
   109    65    66    2
   110    65    64    1
   111   185   186   ar
   112    86    85    1
   113    80    81    1
   114    80    83    1
   115    28    25    1
   116   181   182    1
   117   181   178    1
   118    90    89    2
   119    81    82    2
   120    64    63    1
   121   182   184   ar
   122    62    61    1
   123    91    89   am
   124    27    26    2
   125   168   169    2
   126   168   167    1
   127   179   178    1
   128    89    88    1
   129   186   184   ar
   130    85    88    1
   131    85    84    1
   132    61    58    1
   133   170   167    1
   134   170   171    1
   135   166   167    1
   136    22    21    1
   137   178   177    1
   138    26    25    1
   139    26    34   am
   140    25    24    1
   141   172   171    1
   142   172   173    1
   143    23    21    1
   144    38    35    1
   145    38    39    1
   146    35    34    1
   147    35    36    1
   148    21    18    1
   149    46    45    2
   150    57    58    1
   151    57    49   am
   152    56    54   ar
   153    56    55   ar
   154   175   174    1
   155    58    59    1
   156    54    52   ar
   157   173   174    2
   158    55    53   ar
   159    39    40    1
   160   174   176    1
   161    48    49    1
   162    48    51    1
   163    48    47    1
   164    52    53   ar
   165    52    51    1
   166    59    60    2
   167    49    50    2
   168    45    47   am
   169    45    44    1
   170    40    42   am
   171    40    41    2
   172    36    37    2
   173    18    19    1
   174    18    17    1
   175    19    20    2
   176    44    43    1
