@<TRIPOS>MOLECULE
tmp/2o1sD00.pdb
 71 66 0 0 0
SMALL
GASTEIGER

@<TRIPOS>ATOM
      1  N         29.9200   81.0490   48.5060 N.3    59  VAL59      -0.1245
      2  CA        28.8510   81.0580   49.5010 C.3    59  VAL59       0.1561
      3  C         27.6710   81.9260   49.0790 C.2    59  VAL59       0.2260
      4  O         26.5130   81.5140   49.1990 O.2    59  VAL59      -0.2867
      5  CB        29.3680   81.5340   50.8860 C.3    59  VAL59       0.0252
      6  CG1       28.2490   81.4380   51.9180 C.3    59  VAL59       0.0019
      7  CG2       30.5600   80.6860   51.3230 C.3    59  VAL59       0.0019
      8  N         27.2300   84.9090   50.3810 N.3    61  HIS61      -0.1226
      9  CA        27.0270   85.8560   51.4670 C.3    61  HIS61       0.1752
     10  C         27.8710   87.0910   51.1990 C.2    61  HIS61       0.2595
     11  O         27.6200   88.1560   51.7610 O.2    61  HIS61      -0.2718
     12  CB        27.4010   85.2280   52.8160 C.3    61  HIS61       0.0759
     13  CG        28.8660   84.9810   52.9890 C.ar   61  HIS61       0.0818
     14  ND1       29.6140   84.2640   52.0810 N.ar   61  HIS61      -0.2268
     15  CD2       29.7180   85.3420   53.9780 C.ar   61  HIS61       0.1154
     16  CE1       30.8650   84.1930   52.5030 C.ar   61  HIS61       0.1986
     17  NE2       30.9540   84.8380   53.6520 N.ar   61  HIS61      -0.2212
     18  N         28.8700   86.9430   50.3310 N.am   62  GLN62      -0.1979
     19  CA        29.7420   88.0570   49.9700 C.3    62  GLN62       0.1601
     20  C         29.4290   88.4940   48.5350 C.2    62  GLN62       0.2287
     21  O         30.2840   89.0450   47.8370 O.2    62  GLN62      -0.2864
     22  CB        31.2260   87.6520   50.0940 C.3    62  GLN62       0.0394
     23  CG        31.8340   86.8970   48.8980 C.3    62  GLN62       0.0908
     24  CD        31.5130   85.4040   48.8700 C.2    62  GLN62       0.2608
     25  OE1       30.3480   85.0030   48.7890 O.2    62  GLN62      -0.2717
     26  NE2       32.5550   84.5750   48.9270 N.am   62  GLN62      -0.0878
     27  N         35.9650   81.5910   49.5950 N.3   110  GLY110     -0.1210
     28  CA        36.5570   82.0770   50.8280 C.3   110  GLY110      0.1956
     29  C         37.5560   81.0710   51.3600 C.2   110  GLY110      0.2612
     30  O         37.5840   79.9250   50.9070 O.2   110  GLY110     -0.2717
     31  N         38.3830   81.4850   52.3140 N.am  111  ASP111     -0.1959
     32  CA        39.3790   80.5800   52.8780 C.3   111  ASP111      0.1840
     33  C         38.7430   79.4060   53.6210 C.2   111  ASP111      0.2623
     34  O         39.3030   78.3110   53.6520 O.2   111  ASP111     -0.2715
     35  CB        40.3390   81.3500   53.7940 C.3   111  ASP111      0.1450
     36  CG        39.6410   82.4170   54.6120 C.2   111  ASP111      0.3671
     37  OD1       38.9780   82.0880   55.6210 O.co2 111  ASP111     -0.2456
     38  OD2       39.7530   83.5990   54.2330 O.co2 111  ASP111     -0.2456
     39  N         37.5710   79.6340   54.2050 N.am  112  GLY112     -0.1940
     40  CA        36.8770   78.5700   54.9110 C.3   112  GLY112      0.2014
     41  C         36.3200   77.5650   53.9180 C.2   112  GLY112      0.2638
     42  O         36.4520   76.3550   54.0920 O.2   112  GLY112     -0.2714
     43  N         35.6980   78.0750   52.8640 N.am  113  ALA113     -0.1977
     44  CA        35.1240   77.2290   51.8300 C.3   113  ALA113      0.1597
     45  C         36.1850   76.3370   51.1890 C.2   113  ALA113      0.2287
     46  O         35.8870   75.2410   50.7250 O.2   113  ALA113     -0.2864
     47  CB        34.4580   78.0930   50.7700 C.3   113  ALA113      0.0319
     48  N         39.4610   84.3710   48.1990 N.3   135  ASN135     -0.1240
     49  CA        39.1790   85.6050   48.9180 C.3   135  ASN135      0.1653
     50  C         39.5460   85.3940   50.3860 C.2   135  ASN135      0.2266
     51  O         38.6850   85.1730   51.2370 O.2   135  ASN135     -0.2867
     52  CB        37.6990   85.9490   48.7630 C.3   135  ASN135      0.1155
     53  CG        37.3080   87.1890   49.5220 C.2   135  ASN135      0.2627
     54  OD1       38.0870   88.1390   49.6290 O.2   135  ASN135     -0.2716
     55  ND2       36.0840   87.2000   50.0390 N.am  135  ASN135     -0.0877
     56  N         40.6170   85.9630   54.1740 N.3   137  ASN137     -0.1240
     57  CA        40.3060   86.8660   55.2810 C.3   137  ASN137      0.1653
     58  C         41.3040   86.6450   56.4140 C.2   137  ASN137      0.2266
     59  O         41.2240   85.6440   57.1310 O.2   137  ASN137     -0.2867
     60  CB        38.8950   86.5890   55.8070 C.3   137  ASN137      0.1155
     61  CG        37.8300   87.3470   55.0520 C.2   137  ASN137      0.2627
     62  OD1       36.6390   87.0510   55.1710 O.2   137  ASN137     -0.2716
     63  ND2       38.2470   88.3490   54.2840 N.am  137  ASN137     -0.0877
     64  N         35.2810   73.4180   57.8400 N.3   226  ILE226     -0.1245
     65  CA        34.1310   73.0220   57.0300 C.3   226  ILE226      0.1561
     66  C         34.3050   71.6340   56.4180 C.2   226  ILE226      0.2260
     67  O         34.4260   71.4840   55.1960 O.2   226  ILE226     -0.2867
     68  CB        33.8790   74.0540   55.9160 C.3   226  ILE226      0.0252
     69  CG1       33.9160   75.4680   56.5140 C.3   226  ILE226      0.0019
     70  CG2       32.5200   73.8160   55.2760 C.3   226  ILE226      0.0019
     71  CD1       33.6350   76.5730   55.5140 C.3   226  ILE226      0.0001
@<TRIPOS>BOND
     1    21    20    2
     2    48    49    1
     3     1     2    1
     4    20    19    1
     5    52    49    1
     6    52    53    1
     7    25    24    2
     8    24    23    1
     9    24    26   am
    10    23    22    1
    11    49    50    1
    12     3     4    2
    13     3     2    1
    14     2     5    1
    15    53    54    2
    16    53    55   am
    17    27    28    1
    18    19    22    1
    19    19    18    1
    20    18    10   am
    21     8     9    1
    22    50    51    2
    23    46    45    2
    24    47    44    1
    25    28    29    1
    26     5     7    1
    27     5     6    1
    28    30    29    2
    29    45    44    1
    30    10     9    1
    31    10    11    2
    32    29    31   am
    33     9    12    1
    34    44    43    1
    35    14    16   ar
    36    14    13   ar
    37    31    32    1
    38    16    17   ar
    39    12    13    1
    40    43    41   am
    41    32    33    1
    42    32    35    1
    43    13    15   ar
    44    33    34    2
    45    33    39   am
    46    17    15   ar
    47    35    36    1
    48    41    42    2
    49    41    40    1
    50    56    57    1
    51    39    40    1
    52    38    36   ar
    53    63    61   am
    54    36    37   ar
    55    61    62    2
    56    61    60    1
    57    67    66    2
    58    70    68    1
    59    57    60    1
    60    57    58    1
    61    71    69    1
    62    68    69    1
    63    68    65    1
    64    58    59    2
    65    66    65    1
    66    65    64    1
