@<TRIPOS>MOLECULE
tmp/2o1xB00.pdb
 209 199 0 0 0
SMALL
GASTEIGER

@<TRIPOS>ATOM
      1  N         56.0860  -13.7260   18.8450 N.3    44  HIS44      -0.1241
      2  CA        55.0700  -14.7480   19.1070 C.3    44  HIS44       0.1621
      3  C         55.5230  -16.1390   18.6850 C.2    44  HIS44       0.2264
      4  O         55.1790  -16.6150   17.5980 O.2    44  HIS44      -0.2867
      5  CB        53.7510  -14.4260   18.3940 C.3    44  HIS44       0.0745
      6  CG        53.1840  -13.0790   18.7170 C.ar   44  HIS44       0.0817
      7  ND1       52.4200  -12.8410   19.8430 N.ar   44  HIS44      -0.2268
      8  CD2       53.2460  -11.9030   18.0480 C.ar   44  HIS44       0.1154
      9  CE1       52.0450  -11.5750   19.8580 C.ar   44  HIS44       0.1986
     10  NE2       52.5280  -10.9850   18.7780 N.ar   44  HIS44      -0.2212
     11  N         52.1110  -19.4810   19.3650 N.3    47  SER47      -0.1217
     12  CA        50.9450  -19.4220   18.4820 C.3    47  SER47       0.1889
     13  C         51.3080  -19.8020   17.0390 C.2    47  SER47       0.2288
     14  O         50.5620  -20.5220   16.3660 O.2    47  SER47      -0.2866
     15  CB        50.2860  -18.0350   18.5430 C.3    47  SER47       0.2089
     16  OG        49.4490  -17.8910   19.6890 O.3    47  SER47      -0.2183
     17  N         44.0250  -12.0050   14.0610 N.3    73  VAL73      -0.1245
     18  CA        45.1340  -11.4380   14.8540 C.3    73  VAL73       0.1561
     19  C         46.4030  -11.3820   14.0220 C.2    73  VAL73       0.2260
     20  O         46.9940  -10.3180   13.8690 O.2    73  VAL73      -0.2867
     21  CB        45.3700  -12.1180   16.2410 C.3    73  VAL73       0.0252
     22  CG1       46.4070  -11.3700   17.0430 C.3    73  VAL73       0.0019
     23  CG2       44.1170  -12.1570   17.0360 C.3    73  VAL73       0.0019
     24  N         49.2260  -12.9970   14.5420 N.3    75  HIS75      -0.1226
     25  CA        50.3950  -13.3560   15.3470 C.3    75  HIS75       0.1752
     26  C         50.8190  -14.7990   15.0830 C.2    75  HIS75       0.2595
     27  O         51.9900  -15.1370   15.2110 O.2    75  HIS75      -0.2718
     28  CB        50.0820  -13.1790   16.8330 C.3    75  HIS75       0.0759
     29  CG        49.0490  -14.1380   17.3510 C.ar   75  HIS75       0.0818
     30  ND1       47.8660  -14.3990   16.6860 N.ar   75  HIS75      -0.2268
     31  CD2       49.0230  -14.8980   18.4730 C.ar   75  HIS75       0.1154
     32  CE1       47.1580  -15.2740   17.3770 C.ar   75  HIS75       0.1986
     33  NE2       47.8370  -15.5950   18.4650 N.ar   75  HIS75      -0.2212
     34  N         49.8640  -15.6420   14.7050 N.am   76  GLN76      -0.1979
     35  CA        50.1190  -17.0620   14.4530 C.3    76  GLN76       0.1601
     36  C         50.5360  -17.3220   12.9990 C.2    76  GLN76       0.2287
     37  O         50.3220  -18.4230   12.4850 O.2    76  GLN76      -0.2864
     38  CB        48.8720  -17.9070   14.8290 C.3    76  GLN76       0.0394
     39  CG        47.7160  -17.9860   13.7890 C.3    76  GLN76       0.0908
     40  CD        47.0140  -16.6400   13.4990 C.2    76  GLN76       0.2608
     41  OE1       47.6650  -15.6050   13.3120 O.2    76  GLN76      -0.2717
     42  NE2       45.6850  -16.6670   13.4420 N.am   76  GLN76      -0.0878
     43  N         45.3100   -7.2360   13.9630 N.3   116  GLY116     -0.1210
     44  CA        46.0610   -7.1130   15.2260 C.3   116  GLY116      0.1956
     45  C         45.0880   -7.2460   16.3830 C.2   116  GLY116      0.2612
     46  O         45.3100   -8.0130   17.3280 O.2   116  GLY116     -0.2717
     47  N         43.9980   -6.4850   16.2860 N.am  117  HIS117     -0.1961
     48  CA        42.8210   -6.7150   17.0880 C.3   117  HIS117      0.1787
     49  C         42.2360   -8.0320   16.6390 C.2   117  HIS117      0.2620
     50  O         42.2780   -8.3740   15.4540 O.2   117  HIS117     -0.2715
     51  CB        41.8280   -5.5910   16.8520 C.3   117  HIS117      0.0785
     52  CG        42.1740   -4.3150   17.5640 C.ar  117  HIS117      0.0821
     53  ND1       41.2340   -3.3470   17.8520 N.ar  117  HIS117     -0.2267
     54  CD2       43.3460   -3.8670   18.0750 C.ar  117  HIS117      0.1154
     55  CE1       41.8190   -2.3510   18.4960 C.ar  117  HIS117      0.1986
     56  NE2       43.1000   -2.6390   18.6390 N.ar  117  HIS117     -0.2212
     57  N         41.7050   -8.7860   17.5880 N.am  118  ALA118     -0.1977
     58  CA        41.1400  -10.1040   17.2930 C.3   118  ALA118      0.1597
     59  C         39.7130  -10.0820   16.7250 C.2   118  ALA118      0.2287
     60  O         38.9500   -9.1090   16.8880 O.2   118  ALA118     -0.2864
     61  CB        41.1870  -10.9670   18.5280 C.3   118  ALA118      0.0319
     62  N         41.4760  -18.5160   15.5880 N.3   146  GLY146     -0.1210
     63  CA        41.7010  -19.2660   16.7980 C.3   146  GLY146      0.1956
     64  C         40.5130  -19.3220   17.7400 C.2   146  GLY146      0.2612
     65  O         39.6370  -18.4620   17.7410 O.2   146  GLY146     -0.2717
     66  N         40.5170  -20.3480   18.5720 N.am  147  ASP147     -0.1959
     67  CA        39.4890  -20.5360   19.5670 C.3   147  ASP147      0.1840
     68  C         39.2950  -19.3240   20.4610 C.2   147  ASP147      0.2623
     69  O         38.1850  -19.0720   20.9030 O.2   147  ASP147     -0.2715
     70  CB        39.8070  -21.7700   20.4060 C.3   147  ASP147      0.1450
     71  CG        41.1720  -21.6990   21.0560 C.2   147  ASP147      0.3671
     72  OD1       41.2250  -21.8760   22.2880 O.co2 147  ASP147     -0.2456
     73  OD2       42.2410  -21.4630   20.4330 O.co2 147  ASP147     -0.2456
     74  N         40.3660  -18.5830   20.7370 N.am  148  GLY148     -0.1940
     75  CA        40.2760  -17.4060   21.6100 C.3   148  GLY148      0.2014
     76  C         39.4920  -16.3020   20.9240 C.2   148  GLY148      0.2639
     77  O         38.5730  -15.6970   21.4890 O.2   148  GLY148     -0.2714
     78  N         39.8600  -16.0530   19.6770 N.am  149  SER149     -0.1949
     79  CA        39.1780  -15.0760   18.8610 C.3   149  SER149      0.1924
     80  C         37.7200  -15.4300   18.6130 C.2   149  SER149      0.2314
     81  O         36.9040  -14.5390   18.3950 O.2   149  SER149     -0.2863
     82  CB        39.9040  -14.9200   17.5350 C.3   149  SER149      0.2116
     83  OG        41.2740  -14.6630   17.7750 O.3   149  SER149     -0.2180
     84  N         41.1070  -22.8120   14.4840 N.3   174  ASN174     -0.1240
     85  CA        42.3770  -23.2510   15.0290 C.3   174  ASN174      0.1653
     86  C         42.2750  -23.3320   16.5460 C.2   174  ASN174      0.2266
     87  O         42.4620  -22.3280   17.2510 O.2   174  ASN174     -0.2867
     88  CB        43.4730  -22.2780   14.5950 C.3   174  ASN174      0.1155
     89  CG        44.8550  -22.6840   15.0690 C.2   174  ASN174      0.2627
     90  OD1       45.0460  -23.7470   15.6580 O.2   174  ASN174     -0.2716
     91  ND2       45.8370  -21.8330   14.7960 N.am  174  ASN174     -0.0877
     92  N         43.2110  -24.5030   20.2310 N.3   176  ASN176     -0.1240
     93  CA        44.3300  -24.7660   21.1400 C.3   176  ASN176      0.1653
     94  C         43.8920  -25.0900   22.5640 C.2   176  ASN176      0.2266
     95  O         44.6920  -25.6190   23.3510 O.2   176  ASN176     -0.2867
     96  CB        45.1240  -23.4810   21.2950 C.3   176  ASN176      0.1155
     97  CG        46.2570  -23.3640   20.3360 C.2   176  ASN176      0.2627
     98  OD1       46.7950  -24.3660   19.8370 O.2   176  ASN176     -0.2716
     99  ND2       46.6700  -22.1240   20.0900 N.am  176  ASN176     -0.0877
    100  N         43.7150  -22.5890   24.2160 N.3   178  MET178     -0.1230
    101  CA        44.5510  -21.5110   24.7270 C.3   178  MET178      0.1702
    102  C         44.1670  -20.1860   24.0680 C.2   178  MET178      0.2593
    103  O         43.9530  -20.1130   22.8380 O.2   178  MET178     -0.2718
    104  CB        46.0360  -21.8160   24.4850 C.3   178  MET178      0.0401
    105  CG        46.5620  -22.9970   25.2630 C.3   178  MET178      0.0596
    106  SD        46.7400  -22.5770   27.0020 S.3   178  MET178     -0.1393
    107  CE        46.8350  -24.2230   27.7140 C.3   178  MET178      0.0692
    108  N         44.0470  -19.1580   24.9050 N.am  179  SER179     -0.1938
    109  CA        44.0170  -17.7830   24.4340 C.3   179  SER179      0.2055
    110  C         45.4660  -17.2660   24.5920 C.2   179  SER179      0.2642
    111  O         46.3650  -17.7820   23.9330 O.2   179  SER179     -0.2714
    112  CB        42.9780  -16.9670   25.2170 C.3   179  SER179      0.2130
    113  OG        42.5100  -15.8630   24.4540 O.3   179  SER179     -0.2179
    114  N         45.7080  -16.2710   25.4400 N.am  180  ILE180     -0.1977
    115  CA        47.0510  -16.1000   25.9700 C.3   180  ILE180      0.1596
    116  C         47.0410  -16.8870   27.2790 C.2   180  ILE180      0.2287
    117  O         47.6990  -17.9290   27.4050 O.2   180  ILE180     -0.2864
    118  CB        47.4570  -14.6000   26.1930 C.3   180  ILE180      0.0276
    119  CG1       47.3210  -13.7860   24.9000 C.3   180  ILE180      0.0022
    120  CG2       48.8840  -14.5000   26.7400 C.3   180  ILE180      0.0022
    121  CD1       48.1550  -12.5320   24.8710 C.3   180  ILE180      0.0001
    122  N         49.3210  -25.5600   21.2750 N.3   239  LYS239     -0.1245
    123  CA        50.1150  -24.3490   21.2450 C.3   239  LYS239      0.1561
    124  C         51.5960  -24.6730   21.4980 C.2   239  LYS239      0.2260
    125  O         51.9460  -25.3840   22.4480 O.2   239  LYS239     -0.2867
    126  CB        49.6020  -23.3140   22.2480 C.3   239  LYS239      0.0271
    127  CG        49.3700  -21.9340   21.6340 C.3   239  LYS239      0.0035
    128  CD        50.1420  -20.8780   22.3700 C.3   239  LYS239      0.0206
    129  CE        49.5400  -19.4900   22.2120 C.3   239  LYS239      0.1093
    130  NZ        48.7300  -19.1100   23.4140 N.3   239  LYS239     -0.1314
    131  N         53.9850  -17.7500   24.5190 N.3   254  HIS254     -0.1241
    132  CA        53.2540  -16.8690   23.6130 C.3   254  HIS254      0.1621
    133  C         54.1620  -15.6980   23.1810 C.2   254  HIS254      0.2264
    134  O         54.2540  -15.3700   21.9870 O.2   254  HIS254     -0.2867
    135  CB        51.9940  -16.3620   24.3180 C.3   254  HIS254      0.0745
    136  CG        51.0630  -15.5930   23.4340 C.ar  254  HIS254      0.0817
    137  ND1       51.0830  -14.2170   23.3510 N.ar  254  HIS254     -0.2268
    138  CD2       50.0650  -16.0040   22.6150 C.ar  254  HIS254      0.1154
    139  CE1       50.1510  -13.8130   22.5040 C.ar  254  HIS254      0.1986
    140  NE2       49.5130  -14.8770   22.0500 N.ar  254  HIS254     -0.2212
    141  N         39.2930   -8.4010   29.8390 N.3   297  PRO297     -0.2102
    142  CA        38.9630   -9.0340   28.5910 C.3   297  PRO297      0.1504
    143  C         40.1860   -9.7750   28.0390 C.2   297  PRO297      0.2576
    144  O         40.9390   -9.2150   27.2250 O.2   297  PRO297     -0.2718
    145  CB        38.5370   -7.8520   27.7110 C.3   297  PRO297      0.0282
    146  CG        39.3400   -6.7240   28.1970 C.3   297  PRO297      0.0208
    147  CD        39.7370   -7.0160   29.6360 C.3   297  PRO297      0.0893
    148  N         40.3730  -11.0100   28.5240 N.am  298  ALA298     -0.1966
    149  CA        41.3950  -11.9670   28.0480 C.3   298  ALA298      0.1728
    150  C         42.8630  -11.6640   28.3960 C.2   298  ALA298      0.2616
    151  O         43.7650  -12.2920   27.8560 O.2   298  ALA298     -0.2715
    152  CB        41.2500  -12.2060   26.5400 C.3   298  ALA298      0.0334
    153  N         43.1110  -10.7300   29.3060 N.am  299  MET299     -0.1977
    154  CA        44.4620  -10.2190   29.5030 C.3   299  MET299      0.1605
    155  C         44.9490  -10.2870   30.9680 C.2   299  MET299      0.2287
    156  O         45.4970   -9.3160   31.5040 O.2   299  MET299     -0.2864
    157  CB        44.5350   -8.7810   28.9680 C.3   299  MET299      0.0413
    158  CG        44.3980   -8.6210   27.4540 C.3   299  MET299      0.0598
    159  SD        45.9700   -8.7610   26.5520 S.3   299  MET299     -0.1393
    160  CE        45.7790  -10.4660   26.0720 C.3   299  MET299      0.0692
    161  N         37.9860  -12.6420   24.7040 N.3   321  ILE321     -0.1245
    162  CA        38.3860  -11.4900   23.8760 C.3   321  ILE321      0.1561
    163  C         37.1530  -10.6370   23.5450 C.2   321  ILE321      0.2260
    164  O         36.8110  -10.4170   22.3680 O.2   321  ILE321     -0.2867
    165  CB        39.1630  -11.9360   22.6100 C.3   321  ILE321      0.0252
    166  CG1       40.1620  -13.0430   22.9600 C.3   321  ILE321      0.0019
    167  CG2       39.8760  -10.7490   22.0060 C.3   321  ILE321      0.0019
    168  CD1       41.0780  -13.4750   21.8250 C.3   321  ILE321      0.0001
    169  N         35.8050   -7.2980   24.9560 N.3   323  GLU323     -0.1245
    170  CA        35.8500   -6.0330   25.6580 C.3   323  GLU323      0.1567
    171  C         34.4580   -5.4730   25.8920 C.2   323  GLU323      0.2260
    172  O         34.1810   -4.9290   26.9690 O.2   323  GLU323     -0.2867
    173  CB        36.7140   -5.0420   24.8960 C.3   323  GLU323      0.0388
    174  CG        38.2020   -5.3770   24.9120 C.3   323  GLU323      0.1160
    175  CD        38.6180   -6.4700   23.9290 C.2   323  GLU323      0.3649
    176  OE1       37.7620   -7.0810   23.2610 O.co2 323  GLU323     -0.2457
    177  OE2       39.8360   -6.7280   23.8260 O.co2 323  GLU323     -0.2457
    178  N         42.4140   -1.8900   23.2150 N.3   348  PHE348     -0.1241
    179  CA        41.2920   -2.7760   23.2720 C.3   348  PHE348      0.1605
    180  C         40.0270   -2.0640   23.7980 C.2   348  PHE348      0.2264
    181  O         38.8980   -2.3560   23.3540 O.2   348  PHE348     -0.2867
    182  CB        41.6690   -4.0930   23.9380 C.3   348  PHE348      0.0534
    183  CG        42.8760   -4.7460   23.3020 C.ar  348  PHE348     -0.0203
    184  CD1       43.0040   -4.7920   21.9120 C.ar  348  PHE348     -0.0042
    185  CD2       43.8980   -5.2860   24.0900 C.ar  348  PHE348     -0.0042
    186  CE1       44.1230   -5.3660   21.3080 C.ar  348  PHE348     -0.0003
    187  CE2       45.0110   -5.8740   23.5010 C.ar  348  PHE348     -0.0003
    188  CZ        45.1300   -5.9080   22.0960 C.ar  348  PHE348     -0.0000
    189  N         37.2830   -0.9730   21.3550 N.3   351  ARG351     -0.1245
    190  CA        36.1890   -1.9120   21.1570 C.3   351  ARG351      0.1563
    191  C         34.9640   -1.6950   22.0730 C.2   351  ARG351      0.2260
    192  O         33.8720   -2.2000   21.7760 O.2   351  ARG351     -0.2867
    193  CB        36.6940   -3.3460   21.3330 C.3   351  ARG351      0.0307
    194  CG        37.3940   -3.9110   20.1590 C.3   351  ARG351      0.0489
    195  CD        36.5030   -4.5200   19.1410 C.3   351  ARG351      0.2205
    196  NE        37.2810   -4.8380   17.9610 N.pl3 351  ARG351     -0.0865
    197  CZ        37.8320   -6.0220   17.7310 C.cat 351  ARG351      0.5346
    198  NH1       37.6530   -7.0340   18.5780 N.pl3 351  ARG351      0.1354
    199  NH2       38.5550   -6.2090   16.6390 N.pl3 351  ARG351      0.1354
    200  N         48.0400   -1.3750   17.6240 N.3   384  HIS384     -0.1241
    201  CA        48.1120   -1.3910   19.0970 C.3   384  HIS384      0.1621
    202  C         48.4670   -0.0980   19.7930 C.2   384  HIS384      0.2264
    203  O         48.3810   -0.0170   21.0100 O.2   384  HIS384     -0.2867
    204  CB        49.0980   -2.4480   19.5670 C.3   384  HIS384      0.0745
    205  CG        48.6150   -3.8380   19.3580 C.ar  384  HIS384      0.0817
    206  ND1       48.3230   -4.3400   18.1100 N.ar  384  HIS384     -0.2268
    207  CD2       48.3660   -4.8320   20.2380 C.ar  384  HIS384      0.1154
    208  CE1       47.9290   -5.5920   18.2330 C.ar  384  HIS384      0.1986
    209  NE2       47.9500   -5.9140   19.5130 N.ar  384  HIS384     -0.2212
@<TRIPOS>BOND
     1    37    36    2
     2    36    35    1
     3    41    40    2
     4    42    40   am
     5    40    39    1
     6    39    38    1
     7    20    19    2
     8    43    44    1
     9    19    18    1
    10    17    18    1
    11    35    34    1
    12    35    38    1
    13    84    85    1
    14    24    25    1
    15    88    85    1
    16    88    89    1
    17    34    26   am
    18    91    89   am
    19    18    21    1
    20    85    86    1
    21    89    90    2
    22    26    27    2
    23    26    25    1
    24    44    45    1
    25    25    28    1
    26    50    49    2
    27    62    63    1
    28    21    23    1
    29    21    22    1
    30    47    45   am
    31    47    48    1
    32    14    13    2
    33    45    46    2
    34    86    87    2
    35    49    48    1
    36    49    57   am
    37   199   197    1
    38    30    29   ar
    39    30    32   ar
    40    59    60    2
    41    59    58    1
    42    63    64    1
    43    28    29    1
    44    51    48    1
    45    51    52    1
    46    13    12    1
    47    58    57    1
    48    58    61    1
    49    29    31   ar
    50    32    33   ar
    51    82    83    1
    52    82    79    1
    53    52    53   ar
    54    52    54   ar
    55     4     3    2
    56   200   201    1
    57   197   196    2
    58   197   198    1
    59    64    65    2
    60    64    66   am
    61    53    55   ar
    62   196   195    1
    63     8     6   ar
    64     8    10   ar
    65    54    56   ar
    66   206   208   ar
    67   206   205   ar
    68   208   209   ar
    69     5     6    1
    70     5     2    1
    71    81    80    2
    72    33    31   ar
    73    12    15    1
    74    12    11    1
    75    55    56   ar
    76    15    16    1
    77    66    67    1
    78    80    79    1
    79     3     2    1
    80     6     7   ar
    81    10     9   ar
    82     1     2    1
    83    79    78    1
    84   201   204    1
    85   201   202    1
    86   195   194    1
    87   205   204    1
    88   205   207   ar
    89   209   207   ar
    90    67    70    1
    91    67    68    1
    92    78    76   am
    93   202   203    2
    94    98    97    2
    95     7     9   ar
    96    99    97   am
    97   194   193    1
    98    92    93    1
    99    97    96    1
   100    70    71    1
   101    73    71   ar
   102    68    74   am
   103    68    69    2
   104    74    75    1
   105    76    77    2
   106    76    75    1
   107    71    72   ar
   108    93    96    1
   109    93    94    1
   110   190   193    1
   111   190   189    1
   112   190   191    1
   113   123   122    1
   114   123   124    1
   115   123   126    1
   116   186   184   ar
   117   186   188   ar
   118   124   125    2
   119   127   126    1
   120   127   128    1
   121   192   191    2
   122   168   166    1
   123   184   183   ar
   124   134   133    2
   125   167   165    1
   126   140   139   ar
   127   140   138   ar
   128   188   187   ar
   129   129   128    1
   130   129   130    1
   131   164   163    2
   132   139   137   ar
   133    94    95    2
   134   165   166    1
   135   165   162    1
   136   138   136   ar
   137   103   102    2
   138   133   132    1
   139   178   179    1
   140   176   175   ar
   141   179   180    1
   142   179   182    1
   143   183   182    1
   144   183   185   ar
   145   137   136   ar
   146   181   180    2
   147   136   135    1
   148   187   185   ar
   149   163   162    1
   150   132   135    1
   151   132   131    1
   152   177   175   ar
   153   162   161    1
   154   175   174    1
   155   111   110    2
   156   102   101    1
   157   102   108   am
   158   100   101    1
   159   109   110    1
   160   109   108    1
   161   109   112    1
   162   113   112    1
   163   104   101    1
   164   104   105    1
   165   110   114   am
   166   121   119    1
   167   173   174    1
   168   173   170    1
   169   119   118    1
   170   169   170    1
   171   105   106    1
   172   114   115    1
   173   170   171    1
   174   171   172    2
   175   115   118    1
   176   115   116    1
   177   160   159    1
   178   118   120    1
   179   152   149    1
   180   159   158    1
   181   106   107    1
   182   144   143    2
   183   116   117    2
   184   158   157    1
   185   145   146    1
   186   145   142    1
   187   151   150    2
   188   143   148   am
   189   143   142    1
   190   149   150    1
   191   149   148    1
   192   146   147    1
   193   150   153   am
   194   142   141    1
   195   157   154    1
   196   153   154    1
   197   154   155    1
   198   147   141    1
   199   155   156    2
