@<TRIPOS>MOLECULE
tmp/2o1xC00.pdb
 199 189 0 0 0
SMALL
GASTEIGER

@<TRIPOS>ATOM
      1  N         56.4380  -58.4070   48.6680 N.3    45  HIS45      -0.1241
      2  CA        55.4530  -57.3330   48.3890 C.3    45  HIS45       0.1621
      3  C         55.7850  -55.9640   49.0210 C.2    45  HIS45       0.2264
      4  O         55.2420  -55.5990   50.0760 O.2    45  HIS45      -0.2867
      5  CB        54.0320  -57.7550   48.8060 C.3    45  HIS45       0.0745
      6  CG        53.7550  -59.2210   48.6570 C.ar   45  HIS45       0.0817
      7  ND1       53.3400  -59.7860   47.4700 N.ar   45  HIS45      -0.2268
      8  CD2       53.8190  -60.2340   49.5540 C.ar   45  HIS45       0.1154
      9  CE1       53.1740  -61.0850   47.6380 C.ar   45  HIS45       0.1986
     10  NE2       53.4560  -61.3830   48.8940 N.ar   45  HIS45      -0.2212
     11  N         52.8800  -52.2720   48.1820 N.3    48  SER48      -0.1217
     12  CA        51.4890  -52.4730   48.6120 C.3    48  SER48       0.1889
     13  C         51.2840  -52.0150   50.0440 C.2    48  SER48       0.2288
     14  O         50.3690  -51.2400   50.3440 O.2    48  SER48      -0.2866
     15  CB        51.1000  -53.9410   48.4930 C.3    48  SER48       0.2089
     16  OG        50.7760  -54.2610   47.1600 O.3    48  SER48      -0.2183
     17  N         43.2420  -59.6560   50.5880 N.3    74  VAL74      -0.1245
     18  CA        44.4990  -60.3110   50.1730 C.3    74  VAL74       0.1561
     19  C         45.4860  -60.4390   51.3330 C.2    74  VAL74       0.2260
     20  O         46.0300  -61.5210   51.5730 O.2    74  VAL74      -0.2867
     21  CB        45.1880  -59.6290   48.9680 C.3    74  VAL74       0.0252
     22  CG1       46.3910  -60.4440   48.5050 C.3    74  VAL74       0.0019
     23  CG2       44.2120  -59.4300   47.8370 C.3    74  VAL74       0.0019
     24  N         48.3300  -58.8070   51.7540 N.3    76  HIS76      -0.1226
     25  CA        49.7050  -58.5050   51.3400 C.3    76  HIS76       0.1752
     26  C         50.1410  -57.0630   51.6630 C.2    76  HIS76       0.2595
     27  O         51.3310  -56.7420   51.6050 O.2    76  HIS76      -0.2718
     28  CB        49.8940  -58.8300   49.8450 C.3    76  HIS76       0.0759
     29  CG        49.3240  -57.7990   48.9180 C.ar   76  HIS76       0.0818
     30  ND1       48.0210  -57.3530   49.0030 N.ar   76  HIS76      -0.2268
     31  CD2       49.8830  -57.1290   47.8820 C.ar   76  HIS76       0.1154
     32  CE1       47.8060  -56.4450   48.0680 C.ar   76  HIS76       0.1986
     33  NE2       48.9200  -56.2900   47.3740 N.ar   76  HIS76      -0.2212
     34  N         49.1720  -56.2150   52.0090 N.am   77  GLN77      -0.1979
     35  CA        49.4150  -54.8110   52.3340 C.3    77  GLN77       0.1601
     36  C         49.3630  -54.5880   53.8390 C.2    77  GLN77       0.2287
     37  O         49.4300  -53.4530   54.3150 O.2    77  GLN77      -0.2864
     38  CB        48.3960  -53.9090   51.6140 C.3    77  GLN77       0.0394
     39  CG        46.9630  -53.8990   52.1780 C.3    77  GLN77       0.0908
     40  CD        46.2880  -55.2720   52.1960 C.2    77  GLN77       0.2608
     41  OE1       46.4410  -56.0390   53.1530 O.2    77  GLN77      -0.2717
     42  NE2       45.5260  -55.5700   51.1520 N.am   77  GLN77      -0.0878
     43  N         44.4300  -64.6280   50.9510 N.3   117  GLY117     -0.1210
     44  CA        45.4420  -64.8460   49.9220 C.3   117  GLY117      0.1956
     45  C         44.7700  -64.5380   48.6000 C.2   117  GLY117      0.2612
     46  O         45.2980  -63.7860   47.7790 O.2   117  GLY117     -0.2717
     47  N         43.5890  -65.1260   48.4120 N.am  118  HIS118     -0.1961
     48  CA        42.7130  -64.7890   47.3040 C.3   118  HIS118      0.1787
     49  C         42.0380  -63.4570   47.6100 C.2   118  HIS118      0.2620
     50  O         41.6460  -63.1880   48.7450 O.2   118  HIS118     -0.2715
     51  CB        41.6710  -65.8930   47.0890 C.3   118  HIS118      0.0785
     52  CG        42.2390  -67.1830   46.5710 C.ar  118  HIS118      0.0821
     53  ND1       41.4960  -68.0760   45.8290 N.ar  118  HIS118     -0.2267
     54  CD2       43.4760  -67.7240   46.6760 C.ar  118  HIS118      0.1154
     55  CE1       42.2490  -69.1150   45.5090 C.ar  118  HIS118      0.1986
     56  NE2       43.4550  -68.9260   46.0100 N.ar  118  HIS118     -0.2212
     57  N         41.9230  -62.6280   46.5820 N.am  119  ALA119     -0.1977
     58  CA        41.3650  -61.2840   46.6830 C.3   119  ALA119      0.1597
     59  C         39.8420  -61.2940   46.7470 C.2   119  ALA119      0.2287
     60  O         39.1950  -62.2200   46.2390 O.2   119  ALA119     -0.2864
     61  CB        41.8220  -60.4570   45.4920 C.3   119  ALA119      0.0319
     62  N         41.5030  -52.8470   48.3740 N.3   147  GLY147     -0.1210
     63  CA        42.1130  -52.1340   47.2600 C.3   147  GLY147      0.1956
     64  C         41.2290  -52.1250   46.0240 C.2   147  GLY147      0.2612
     65  O         40.3730  -53.0030   45.8470 O.2   147  GLY147     -0.2717
     66  N         41.4470  -51.1310   45.1670 N.am  148  ASP148     -0.1959
     67  CA        40.6720  -50.9610   43.9440 C.3   148  ASP148      0.1840
     68  C         40.7960  -52.1810   43.0500 C.2   148  ASP148      0.2623
     69  O         39.9770  -52.3870   42.1570 O.2   148  ASP148     -0.2715
     70  CB        41.1580  -49.7320   43.1900 C.3   148  ASP148      0.1450
     71  CG        42.6550  -49.7170   43.0320 C.2   148  ASP148      0.3671
     72  OD1       43.1360  -49.3360   41.9470 O.co2 148  ASP148     -0.2456
     73  OD2       43.4320  -50.0850   43.9420 O.co2 148  ASP148     -0.2456
     74  N         41.8300  -52.9820   43.2940 N.am  149  GLY149     -0.1940
     75  CA        42.0100  -54.2440   42.5880 C.3   149  GLY149      0.2014
     76  C         40.9750  -55.2860   42.9790 C.2   149  GLY149      0.2639
     77  O         40.3990  -55.9500   42.1170 O.2   149  GLY149     -0.2714
     78  N         40.7260  -55.4270   44.2790 N.am  150  SER150     -0.1949
     79  CA        39.8280  -56.4690   44.7730 C.3   150  SER150      0.1924
     80  C         38.3430  -56.1150   44.6550 C.2   150  SER150      0.2314
     81  O         37.4850  -56.9910   44.6890 O.2   150  SER150     -0.2863
     82  CB        40.1930  -56.8210   46.2010 C.3   150  SER150      0.2116
     83  OG        41.5690  -57.1330   46.2860 O.3   150  SER150     -0.2180
     84  N         40.9010  -48.5500   49.4260 N.3   175  ASN175     -0.1240
     85  CA        42.2930  -48.2130   49.2120 C.3   175  ASN175      0.1653
     86  C         42.4960  -48.0840   47.7100 C.2   175  ASN175      0.2266
     87  O         42.3600  -49.0570   46.9670 O.2   175  ASN175     -0.2867
     88  CB        43.1920  -49.3110   49.7950 C.3   175  ASN175      0.1155
     89  CG        44.6550  -48.8990   49.8980 C.2   175  ASN175      0.2627
     90  OD1       45.3060  -49.1580   50.9070 O.2   175  ASN175     -0.2716
     91  ND2       45.1800  -48.2740   48.8540 N.am  175  ASN175     -0.0877
     92  N         45.1820  -46.9100   44.9240 N.3   177  ASN177     -0.1240
     93  CA        46.4140  -46.4260   44.2910 C.3   177  ASN177      0.1653
     94  C         46.2680  -46.3100   42.7680 C.2   177  ASN177      0.2266
     95  O         47.2470  -46.4290   42.0190 O.2   177  ASN177     -0.2867
     96  CB        47.6640  -47.2310   44.7110 C.3   177  ASN177      0.1155
     97  CG        47.3910  -48.7210   44.8970 C.2   177  ASN177      0.2627
     98  OD1       46.5300  -49.3110   44.2330 O.2   177  ASN177     -0.2716
     99  ND2       48.1390  -49.3390   45.8060 N.am  177  ASN177     -0.0877
    100  N         45.5280  -48.0900   40.6210 N.3   179  MET179     -0.1230
    101  CA        46.0190  -49.2250   39.8500 C.3   179  MET179      0.1702
    102  C         46.6840  -50.2940   40.7340 C.2   179  MET179      0.2593
    103  O         47.5730  -50.0020   41.5370 O.2   179  MET179     -0.2718
    104  CB        46.9240  -48.7080   38.7070 C.3   179  MET179      0.0401
    105  CG        48.2780  -49.3650   38.4920 C.3   179  MET179      0.0596
    106  SD        49.6130  -48.7580   39.5420 S.3   179  MET179     -0.1393
    107  CE        49.5250  -46.9640   39.3480 C.3   179  MET179      0.0692
    108  N         46.2080  -51.5300   40.5940 N.am  180  SER180     -0.1938
    109  CA        46.8120  -52.6930   41.2410 C.3   180  SER180      0.2055
    110  C         47.9770  -53.2220   40.4030 C.2   180  SER180      0.2642
    111  O         48.4910  -52.5140   39.5290 O.2   180  SER180     -0.2714
    112  CB        45.7620  -53.7900   41.4550 C.3   180  SER180      0.2130
    113  OG        45.3050  -54.3420   40.2320 O.3   180  SER180     -0.2179
    114  N         48.3770  -54.4690   40.6570 N.am  181  ILE181     -0.1977
    115  CA        49.5100  -55.0920   39.9590 C.3   181  ILE181      0.1596
    116  C         49.8130  -54.4390   38.5980 C.2   181  ILE181      0.2287
    117  O         50.9110  -53.9320   38.3880 O.2   181  ILE181     -0.2864
    118  CB        49.3510  -56.6510   39.8680 C.3   181  ILE181      0.0276
    119  CG1       47.9600  -57.0650   39.3550 C.3   181  ILE181      0.0022
    120  CG2       49.6260  -57.2980   41.2230 C.3   181  ILE181      0.0022
    121  CD1       47.9060  -57.4140   37.8620 C.3   181  ILE181      0.0001
    122  N         51.0620  -46.3000   45.7070 N.3   229  LYS229     -0.1245
    123  CA        51.7430  -47.5760   45.9370 C.3   229  LYS229      0.1561
    124  C         53.2510  -47.3170   45.9130 C.2   229  LYS229      0.2260
    125  O         53.8600  -47.2260   44.8490 O.2   229  LYS229     -0.2867
    126  CB        51.3320  -48.6040   44.8740 C.3   229  LYS229      0.0271
    127  CG        51.5270  -50.0760   45.2690 C.3   229  LYS229      0.0035
    128  CD        51.1990  -51.0360   44.1150 C.3   229  LYS229      0.0206
    129  CE        51.5180  -52.4860   44.4800 C.3   229  LYS229      0.1093
    130  NZ        51.4760  -53.4140   43.3110 N.3   229  LYS229     -0.1314
    131  N         43.2630  -62.7130   33.8910 N.3   257  PRO257     -0.2102
    132  CA        42.5310  -61.9990   34.9130 C.3   257  PRO257      0.1504
    133  C         43.5250  -61.2620   35.7910 C.2   257  PRO257      0.2576
    134  O         43.8830  -61.7500   36.8740 O.2   257  PRO257     -0.2718
    135  CB        41.8320  -63.1120   35.6910 C.3   257  PRO257      0.0282
    136  CG        42.6280  -64.3570   35.4250 C.3   257  PRO257      0.0208
    137  CD        43.6550  -64.0550   34.3530 C.3   257  PRO257      0.0893
    138  N         43.9750  -60.1060   35.2940 N.am  258  ALA258     -0.1966
    139  CA        44.9580  -59.2610   35.9720 C.3   258  ALA258      0.1728
    140  C         46.1040  -60.0690   36.5810 C.2   258  ALA258      0.2616
    141  O         46.1610  -60.2580   37.8000 O.2   258  ALA258     -0.2715
    142  CB        44.2800  -58.3810   37.0300 C.3   258  ALA258      0.0334
    143  N         46.9800  -60.5670   35.7050 N.am  259  MET259     -0.1977
    144  CA        48.2390  -61.2470   36.0550 C.3   259  MET259      0.1605
    145  C         49.0950  -61.2610   34.7840 C.2   259  MET259      0.2287
    146  O         49.6440  -62.2970   34.3820 O.2   259  MET259     -0.2864
    147  CB        48.0260  -62.6870   36.5810 C.3   259  MET259      0.0413
    148  CG        47.4180  -62.8400   37.9860 C.3   259  MET259      0.0598
    149  SD        48.2390  -61.9250   39.3160 S.3   259  MET259     -0.1393
    150  CE        49.4510  -63.1060   39.9010 C.3   259  MET259      0.0692
    151  N         40.4990  -58.7080   38.5360 N.3   281  ILE281     -0.1245
    152  CA        40.5020  -59.8300   39.4730 C.3   281  ILE281      0.1561
    153  C         39.1280  -60.5260   39.4620 C.2   281  ILE281      0.2260
    154  O         38.3990  -60.5300   40.4620 O.2   281  ILE281     -0.2867
    155  CB        40.9640  -59.3740   40.8900 C.3   281  ILE281      0.0252
    156  CG1       42.0450  -58.2840   40.7690 C.3   281  ILE281      0.0019
    157  CG2       41.4620  -60.5700   41.6820 C.3   281  ILE281      0.0019
    158  CD1       42.8580  -58.0130   42.0150 C.3   281  ILE281      0.0001
    159  N         38.0650  -63.9880   37.6850 N.3   283  GLU283     -0.1245
    160  CA        38.3230  -65.2280   36.9650 C.3   283  GLU283      0.1567
    161  C         37.0690  -65.7160   36.2650 C.2   283  GLU283      0.2260
    162  O         37.1010  -66.0390   35.0660 O.2   283  GLU283     -0.2867
    163  CB        38.8660  -66.2900   37.9100 C.3   283  GLU283      0.0388
    164  CG        40.3280  -66.0960   38.2770 C.3   283  GLU283      0.1160
    165  CD        40.5490  -64.9730   39.2680 C.2   283  GLU283      0.3649
    166  OE1       39.5800  -64.5720   39.9570 O.co2 283  GLU283     -0.2457
    167  OE2       41.6970  -64.4910   39.3630 O.co2 283  GLU283     -0.2457
    168  N         43.8680  -69.5770   41.3660 N.3   308  PHE308     -0.1241
    169  CA        42.8410  -68.6460   40.9720 C.3   308  PHE308      0.1605
    170  C         41.8350  -69.3190   40.0340 C.2   308  PHE308      0.2264
    171  O         40.6540  -68.9550   40.0090 O.2   308  PHE308     -0.2867
    172  CB        43.4700  -67.3850   40.4120 C.3   308  PHE308      0.0534
    173  CG        44.5440  -66.8140   41.3050 C.ar  308  PHE308     -0.0203
    174  CD1       44.3680  -66.7610   42.6850 C.ar  308  PHE308     -0.0042
    175  CD2       45.7270  -66.3240   40.7760 C.ar  308  PHE308     -0.0042
    176  CE1       45.3600  -66.2330   43.5210 C.ar  308  PHE308     -0.0003
    177  CE2       46.7130  -65.7990   41.6080 C.ar  308  PHE308     -0.0003
    178  CZ        46.5260  -65.7600   42.9830 C.ar  308  PHE308     -0.0000
    179  N         38.4520  -70.2820   41.3060 N.3   311  ARG311     -0.1245
    180  CA        37.4410  -69.2370   41.2900 C.3   311  ARG311      0.1563
    181  C         36.4990  -69.3690   40.0890 C.2   311  ARG311      0.2260
    182  O         35.4500  -68.7190   40.0550 O.2   311  ARG311     -0.2867
    183  CB        38.1180  -67.8600   41.2900 C.3   311  ARG311      0.0307
    184  CG        38.4790  -67.3410   42.6610 C.3   311  ARG311      0.0489
    185  CD        37.2860  -66.7450   43.4050 C.3   311  ARG311      0.2205
    186  NE        37.5620  -66.4980   44.8160 N.pl3 311  ARG311     -0.0865
    187  CZ        38.1550  -65.4060   45.2930 C.cat 311  ARG311      0.5346
    188  NH1       38.5510  -64.4360   44.4760 N.pl3 311  ARG311      0.1354
    189  NH2       38.3570  -65.2830   46.6010 N.pl3 311  ARG311      0.1354
    190  N         47.5740  -70.2130   48.5310 N.3   344  HIS344     -0.1241
    191  CA        48.0340  -69.9370   47.1650 C.3   344  HIS344      0.1621
    192  C         48.5410  -71.1670   46.3980 C.2   344  HIS344      0.2264
    193  O         48.7630  -71.0790   45.1990 O.2   344  HIS344     -0.2867
    194  CB        49.1630  -68.9080   47.2060 C.3   344  HIS344      0.0745
    195  CG        48.7680  -67.5340   46.7640 C.ar  344  HIS344      0.0817
    196  ND1       48.1490  -66.6310   47.5990 N.ar  344  HIS344     -0.2268
    197  CD2       48.9460  -66.8930   45.5840 C.ar  344  HIS344      0.1154
    198  CE1       47.9430  -65.5000   46.9470 C.ar  344  HIS344      0.1986
    199  NE2       48.4170  -65.6330   45.7220 N.ar  344  HIS344     -0.2212
@<TRIPOS>BOND
     1   131   137    1
     2   131   132    1
     3   137   136    1
     4   146   145    2
     5   145   144    1
     6   132   135    1
     7   132   133    1
     8   162   161    2
     9   138   133   am
    10   138   139    1
    11   136   135    1
    12   143   144    1
    13   143   140   am
    14   133   134    2
    15   139   140    1
    16   139   142    1
    17   144   147    1
    18   161   160    1
    19   140   141    2
    20   147   148    1
    21   160   159    1
    22   160   163    1
    23   121   119    1
    24   163   164    1
    25   148   149    1
    26   164   165    1
    27   117   116    2
    28   105   104    1
    29   105   106    1
    30   151   152    1
    31   116   115    1
    32   104   101    1
    33   165   167   ar
    34   165   166   ar
    35   149   150    1
    36   107   106    1
    37   119   118    1
    38   153   152    1
    39   153   154    2
    40   152   155    1
    41   111   110    2
    42   101   100    1
    43   101   102    1
    44   118   115    1
    45   118   120    1
    46   115   114    1
    47   171   170    2
    48   170   169    1
    49   182   181    2
    50   181   180    1
    51   113   112    1
    52   110   114   am
    53   110   109    1
    54   172   169    1
    55   172   173    1
    56   108   102   am
    57   108   109    1
    58   102   103    2
    59   156   155    1
    60   156   158    1
    61   175   173   ar
    62   175   177   ar
    63   155   157    1
    64   169   168    1
    65   109   112    1
    66   180   183    1
    67   180   179    1
    68   183   184    1
    69   173   174   ar
    70   177   178   ar
    71    72    71   ar
    72    95    94    2
    73    77    76    2
    74    69    68    2
    75    75    76    1
    76    75    74    1
    77   184   185    1
    78   174   176   ar
    79    94    93    1
    80    76    78   am
    81   178   176   ar
    82    71    70    1
    83    71    73   ar
    84    68    74   am
    85    68    67    1
    86    70    67    1
    87   130   129    1
    88   185   186    1
    89    67    66    1
    90   128   129    1
    91   128   127    1
    92    98    97    2
    93    78    79    1
    94    93    96    1
    95    93    92    1
    96   188   187    1
    97    80    81    2
    98    80    79    1
    99    96    97    1
   100    79    82    1
   101   186   187    2
   102   125   124    2
   103   126   127    1
   104   126   123    1
   105    97    99   am
   106    66    64   am
   107   193   192    2
   108   187   189    1
   109    61    58    1
   110    55    53   ar
   111    55    56   ar
   112   197   199   ar
   113   197   195   ar
   114   122   123    1
   115   199   198   ar
   116    53    52   ar
   117    65    64    2
   118   124   123    1
   119    56    54   ar
   120    64    63    1
   121    82    83    1
   122    60    59    2
   123   192   191    1
   124    52    54   ar
   125    52    51    1
   126    57    58    1
   127    57    49   am
   128    58    59    1
   129   195   194    1
   130   195   196   ar
   131   198   196   ar
   132    87    86    2
   133    51    48    1
   134    16    15    1
   135   191   194    1
   136   191   190    1
   137    63    62    1
   138    48    49    1
   139    48    47    1
   140    33    31   ar
   141    33    32   ar
   142     7     9   ar
   143     7     6   ar
   144    49    50    2
   145     9    10   ar
   146    86    85    1
   147    46    45    2
   148    23    21    1
   149    31    29   ar
   150    32    30   ar
   151    11    12    1
   152     2     1    1
   153     2     5    1
   154     2     3    1
   155    47    45   am
   156    15    12    1
   157    22    21    1
   158    45    44    1
   159    12    13    1
   160     6     5    1
   161     6     8   ar
   162    91    89   am
   163    10     8   ar
   164    29    30   ar
   165    29    28    1
   166    21    18    1
   167     3     4    2
   168    85    84    1
   169    85    88    1
   170    88    89    1
   171    28    25    1
   172    89    90    2
   173    44    43    1
   174    13    14    2
   175    18    17    1
   176    18    19    1
   177    42    40   am
   178    19    20    2
   179    25    26    1
   180    25    24    1
   181    27    26    2
   182    38    39    1
   183    38    35    1
   184    26    34   am
   185    34    35    1
   186    39    40    1
   187    40    41    2
   188    35    36    1
   189    36    37    2
