@<TRIPOS>MOLECULE
tmp/2o22A00.pdb
 174 171 0 0 0
SMALL
GASTEIGER

@<TRIPOS>ATOM
      1  N          4.9980    6.1000   -9.0730 N.3    56  GLN56      -0.1231
      2  CA         6.3260    6.4210   -8.5630 C.3    56  GLN56       0.1698
      3  C          6.3140    6.6070   -7.0480 C.2    56  GLN56       0.2592
      4  O          7.1750    6.0780   -6.3470 O.2    56  GLN56      -0.2718
      5  CB         6.8810    7.6780   -9.2420 C.3    56  GLN56       0.0381
      6  CG         6.4030    8.9800   -8.6160 C.3    56  GLN56       0.0905
      7  CD         6.8370   10.1990   -9.4070 C.2    56  GLN56       0.2608
      8  OE1        6.0050   10.9660   -9.8930 O.2    56  GLN56      -0.2717
      9  NE2        8.1450   10.3850   -9.5380 N.am   56  GLN56      -0.0878
     10  N          5.3370    7.3570   -6.5430 N.am   57  ALA57      -0.1980
     11  CA         5.2350    7.5960   -5.1100 C.3    57  ALA57       0.1597
     12  C          4.9660    6.2930   -4.3650 C.2    57  ALA57       0.2287
     13  O          5.6360    5.9760   -3.3830 O.2    57  ALA57      -0.2864
     14  CB         4.1380    8.6090   -4.8060 C.3    57  ALA57       0.0319
     15  N          7.8570    4.2720   -4.0400 N.3    60  ASP60      -0.1225
     16  CA         8.7970    5.0080   -3.2030 C.3    60  ASP60       0.1805
     17  C          8.5380    4.7290   -1.7250 C.2    60  ASP60       0.2597
     18  O          9.4660    4.4820   -0.9560 O.2    60  ASP60      -0.2718
     19  CB         8.6870    6.5090   -3.4750 C.3    60  ASP60       0.1424
     20  CG         9.7690    7.0080   -4.4130 C.2    60  ASP60       0.3668
     21  OD1       10.9570    6.7220   -4.1540 O.co2  60  ASP60      -0.2456
     22  OD2        9.4280    7.6860   -5.4050 O.co2  60  ASP60      -0.2456
     23  N          7.2680    4.7730   -1.3390 N.am   61  PHE61      -0.1976
     24  CA         6.8730    4.5260    0.0450 C.3    61  PHE61       0.1639
     25  C          7.2950    3.1330    0.5040 C.2    61  PHE61       0.2290
     26  O          7.9390    2.9710    1.5400 O.2    61  PHE61      -0.2864
     27  CB         5.3580    4.5790    0.1600 C.3    61  PHE61       0.0560
     28  CG         4.7790    3.5230    1.0580 C.ar   61  PHE61      -0.0200
     29  CD1        4.8180    3.6750    2.4370 C.ar   61  PHE61      -0.0042
     30  CD2        4.1920    2.3850    0.5290 C.ar   61  PHE61      -0.0042
     31  CE1        4.2820    2.7090    3.2680 C.ar   61  PHE61      -0.0003
     32  CE2        3.6560    1.4170    1.3560 C.ar   61  PHE61      -0.0003
     33  CZ         3.7010    1.5800    2.7260 C.ar   61  PHE61      -0.0000
     34  N         10.7570    2.5830    1.3980 N.3    64  ARG64      -0.1231
     35  CA        11.1500    3.1400    2.6890 C.3    64  ARG64       0.1694
     36  C         10.7880    2.2190    3.8550 C.2    64  ARG64       0.2592
     37  O         11.2330    2.4320    4.9820 O.2    64  ARG64      -0.2718
     38  CB        10.4930    4.5070    2.8910 C.3    64  ARG64       0.0321
     39  CG        11.1120    5.6100    2.0490 C.3    64  ARG64       0.0489
     40  CD        10.5870    6.9790    2.4520 C.3    64  ARG64       0.2205
     41  NE        11.6540    7.9750    2.5220 N.pl3  64  ARG64      -0.0865
     42  CZ        11.4770    9.2270    2.9420 C.cat  64  ARG64       0.5346
     43  NH1       10.2780    9.6440    3.3320 N.pl3  64  ARG64       0.1354
     44  NH2       12.5040   10.0650    2.9710 N.pl3  64  ARG64       0.1354
     45  N          9.9450    1.2300    3.5910 N.am   65  TYR65      -0.1976
     46  CA         9.4810    0.3180    4.6240 C.3    65  TYR65       0.1639
     47  C          9.8540   -1.1250    4.2920 C.2    65  TYR65       0.2290
     48  O          9.1140   -1.8400    3.6160 O.2    65  TYR65      -0.2864
     49  CB         7.9690    0.5470    4.7310 C.3    65  TYR65       0.0560
     50  CG         7.5870    1.7160    5.6340 C.ar   65  TYR65      -0.0198
     51  CD1        7.6690    1.5870    7.0160 C.ar   65  TYR65      -0.0009
     52  CD2        7.1490    2.9500    5.1180 C.ar   65  TYR65      -0.0009
     53  CE1        7.3330    2.6320    7.8560 C.ar   65  TYR65       0.0417
     54  CE2        6.8150    3.9940    5.9590 C.ar   65  TYR65       0.0417
     55  CZ         6.9080    3.8310    7.3240 C.ar   65  TYR65       0.1957
     56  OH         6.5740    4.8700    8.1610 O.3    65  TYR65      -0.2866
     57  N          7.3440   -4.6510    7.0730 N.3    68  ASP68      -0.1225
     58  CA         5.9920   -4.2690    7.4630 C.3    68  ASP68       0.1805
     59  C          4.9500   -4.9630    6.5910 C.2    68  ASP68       0.2597
     60  O          4.2360   -5.8490    7.0600 O.2    68  ASP68      -0.2718
     61  CB         5.8060   -2.7650    7.4220 C.3    68  ASP68       0.1424
     62  CG         6.6400   -2.1440    6.3480 C.2    68  ASP68       0.3668
     63  OD1        7.8230   -1.8440    6.6170 O.co2  68  ASP68      -0.2456
     64  OD2        6.1160   -1.9640    5.2310 O.co2  68  ASP68      -0.2456
     65  N          4.8560   -4.5620    5.3280 N.am   69  PHE69      -0.1976
     66  CA         3.8870   -5.1640    4.4200 C.3    69  PHE69       0.1639
     67  C          4.3220   -6.5540    3.9630 C.2    69  PHE69       0.2290
     68  O          3.5070   -7.4730    3.8890 O.2    69  PHE69      -0.2864
     69  CB         3.6390   -4.2650    3.2030 C.3    69  PHE69       0.0560
     70  CG         4.8900   -3.8080    2.5060 C.ar   69  PHE69      -0.0200
     71  CD1        5.5890   -4.6640    1.6690 C.ar   69  PHE69      -0.0042
     72  CD2        5.3600   -2.5180    2.6810 C.ar   69  PHE69      -0.0042
     73  CE1        6.7360   -4.2400    1.0230 C.ar   69  PHE69      -0.0003
     74  CE2        6.5050   -2.0890    2.0400 C.ar   69  PHE69      -0.0003
     75  CZ         7.1950   -2.9500    1.2100 C.ar   69  PHE69      -0.0000
     76  N          4.3820   -9.2840    6.8750 N.3    72  MET72      -0.1245
     77  CA         3.0240   -9.7320    7.1700 C.3    72  MET72       0.1570
     78  C          2.5020  -10.6780    6.0890 C.2    72  MET72       0.2261
     79  O          1.6480  -11.5240    6.3540 O.2    72  MET72      -0.2867
     80  CB         2.0870   -8.5280    7.3000 C.3    72  MET72       0.0387
     81  CG         2.3050   -7.7180    8.5700 C.3    72  MET72       0.0595
     82  SD         1.0590   -6.4330    8.7960 S.3    72  MET72      -0.1393
     83  CE         2.0120   -4.9590    8.4290 C.3    72  MET72       0.0692
     84  N         -5.5440   -1.1290    7.3950 N.3    94  LEU94      -0.1245
     85  CA        -4.8220    0.0240    6.8720 C.3    94  LEU94       0.1561
     86  C         -5.5810    1.3140    7.1800 C.2    94  LEU94       0.2260
     87  O         -5.0100    2.2810    7.6810 O.2    94  LEU94      -0.2867
     88  CB        -4.6180   -0.1170    5.3620 C.3    94  LEU94       0.0270
     89  CG        -3.1610   -0.0820    4.8990 C.3    94  LEU94       0.0019
     90  CD1       -2.4690    1.1730    5.4110 C.3    94  LEU94       0.0001
     91  CD2       -2.4240   -1.3270    5.3680 C.3    94  LEU94       0.0001
     92  N         -6.0250    8.6950    4.3100 N.3   100  ASN100     -0.1225
     93  CA        -5.0920    9.7580    3.9490 C.3   100  ASN100      0.1785
     94  C         -4.2130    9.3320    2.7780 C.2   100  ASN100      0.2597
     95  O         -4.1160    8.1460    2.4630 O.2   100  ASN100     -0.2718
     96  CB        -4.2190   10.1290    5.1500 C.3   100  ASN100      0.1169
     97  CG        -4.6610   11.4200    5.8090 C.2   100  ASN100      0.2627
     98  OD1       -5.4930   11.4140    6.7150 O.2   100  ASN100     -0.2716
     99  ND2       -4.1040   12.5370    5.3550 N.am  100  ASN100     -0.0877
    100  N         -3.5740   10.3050    2.1380 N.am  101  TRP101     -0.1962
    101  CA        -2.7000   10.0210    1.0030 C.3   101  TRP101      0.1771
    102  C         -1.7020    8.9280    1.3620 C.2   101  TRP101      0.2620
    103  O         -1.5030    7.9830    0.6030 O.2   101  TRP101     -0.2715
    104  CB        -1.9450   11.2780    0.5620 C.3   101  TRP101      0.0590
    105  CG        -2.7900   12.5150    0.5330 C.ar  101  TRP101      0.0006
    106  CD1       -2.5810   13.6610    1.2430 C.ar  101  TRP101      0.0946
    107  CD2       -3.9720   12.7320   -0.2450 C.ar  101  TRP101      0.0152
    108  NE1       -3.5640   14.5780    0.9580 N.ar  101  TRP101     -0.2442
    109  CE2       -4.4290   14.0320    0.0460 C.ar  101  TRP101      0.0810
    110  CE3       -4.6900   11.9550   -1.1580 C.ar  101  TRP101      0.0012
    111  CZ2       -5.5700   14.5700   -0.5440 C.ar  101  TRP101      0.0191
    112  CZ3       -5.8220   12.4900   -1.7440 C.ar  101  TRP101      0.0001
    113  CH2       -6.2520   13.7870   -1.4340 C.ar  101  TRP101      0.0015
    114  N         -1.0780    9.0700    2.5290 N.am  102  GLY102     -0.1940
    115  CA        -0.1000    8.0970    2.9800 C.3   102  GLY102      0.2014
    116  C         -0.6920    6.7110    3.1660 C.2   102  GLY102      0.2638
    117  O         -0.0190    5.7070    2.9380 O.2   102  GLY102     -0.2714
    118  N         -1.9500    6.6540    3.5810 N.am  103  ARG103     -0.1977
    119  CA        -2.6230    5.3780    3.7830 C.3   103  ARG103      0.1597
    120  C         -3.0390    4.7730    2.4460 C.2   103  ARG103      0.2287
    121  O         -2.8250    3.5880    2.1990 O.2   103  ARG103     -0.2864
    122  CB        -3.8240    5.5590    4.7050 C.3   103  ARG103      0.0334
    123  CG        -3.9010    4.5190    5.8070 C.3   103  ARG103      0.0492
    124  CD        -2.6430    4.5270    6.6630 C.3   103  ARG103      0.2205
    125  NE        -2.9510    4.5980    8.0880 N.pl3 103  ARG103     -0.0865
    126  CZ        -3.3220    5.7130    8.7150 C.cat 103  ARG103      0.5346
    127  NH1       -3.4290    6.8580    8.0500 N.pl3 103  ARG103      0.1354
    128  NH2       -3.5850    5.6850   10.0150 N.pl3 103  ARG103      0.1354
    129  N         -1.7410    5.1710   -0.5140 N.3   105  VAL105     -0.1231
    130  CA        -0.5260    4.6350   -1.1250 C.3   105  VAL105      0.1692
    131  C         -0.1440    3.2880   -0.5230 C.2   105  VAL105      0.2591
    132  O          0.2100    2.3550   -1.2440 O.2   105  VAL105     -0.2718
    133  CB         0.6980    5.5870   -1.0180 C.3   105  VAL105      0.0266
    134  CG1        0.6890    6.4010    0.2630 C.3   105  VAL105      0.0020
    135  CG2        1.9920    4.7970   -1.1030 C.3   105  VAL105      0.0020
    136  N         -0.2090    3.1910    0.7970 N.am  106  ALA106     -0.1980
    137  CA         0.1420    1.9580    1.4900 C.3   106  ALA106      0.1597
    138  C         -0.6750    0.7760    0.9800 C.2   106  ALA106      0.2287
    139  O         -0.1210   -0.2550    0.5990 O.2   106  ALA106     -0.2864
    140  CB        -0.0640    2.1310    2.9840 C.3   106  ALA106      0.0319
    141  N          0.2400   -2.7060   -1.0900 N.3   110  PHE110     -0.1241
    142  CA        -0.1460   -3.9920   -0.5240 C.3   110  PHE110      0.1605
    143  C         -0.7950   -4.8780   -1.5820 C.2   110  PHE110      0.2264
    144  O         -0.4230   -6.0400   -1.7460 O.2   110  PHE110     -0.2867
    145  CB        -1.1080   -3.7900    0.6490 C.3   110  PHE110      0.0534
    146  CG        -0.9130   -4.7790    1.7630 C.ar  110  PHE110     -0.0203
    147  CD1       -0.4140   -6.0450    1.5030 C.ar  110  PHE110     -0.0042
    148  CD2       -1.2300   -4.4420    3.0680 C.ar  110  PHE110     -0.0042
    149  CE1       -0.2340   -6.9560    2.5260 C.ar  110  PHE110     -0.0003
    150  CE2       -1.0530   -5.3500    4.0950 C.ar  110  PHE110     -0.0003
    151  CZ        -0.5540   -6.6090    3.8230 C.ar  110  PHE110     -0.0000
    152  N         -3.9700   15.0460   -4.9270 N.3   155  PHE155     -0.1241
    153  CA        -2.7280   14.4160   -4.4910 C.3   155  PHE155      0.1605
    154  C         -1.5510   14.8190   -5.3700 C.2   155  PHE155      0.2264
    155  O         -0.4550   15.0720   -4.8700 O.2   155  PHE155     -0.2867
    156  CB        -2.8780   12.8940   -4.4960 C.3   155  PHE155      0.0534
    157  CG        -1.5830   12.1660   -4.7240 C.ar  155  PHE155     -0.0203
    158  CD1       -0.5170   12.3360   -3.8570 C.ar  155  PHE155     -0.0042
    159  CD2       -1.4340   11.3140   -5.8060 C.ar  155  PHE155     -0.0042
    160  CE1        0.6760   11.6700   -4.0650 C.ar  155  PHE155     -0.0003
    161  CE2       -0.2440   10.6450   -6.0190 C.ar  155  PHE155     -0.0003
    162  CZ         0.8130   10.8230   -5.1470 C.ar  155  PHE155     -0.0000
    163  N          1.8850   16.3770   -4.1550 N.3   159  TYR159     -0.1241
    164  CA         3.1490   15.7250   -4.4640 C.3   159  TYR159      0.1605
    165  C          3.5520   15.9810   -5.9080 C.2   159  TYR159      0.2264
    166  O          3.8470   15.0640   -6.6720 O.2   159  TYR159     -0.2867
    167  CB         3.1220   14.2610   -4.0430 C.3   159  TYR159      0.0534
    168  CG         3.3430   14.1640   -2.5450 C.ar  159  TYR159     -0.0201
    169  CD1        4.6290   14.1840   -2.0150 C.ar  159  TYR159     -0.0009
    170  CD2        2.2710   14.1330   -1.6560 C.ar  159  TYR159     -0.0009
    171  CE1        4.8400   14.1600   -0.6460 C.ar  159  TYR159      0.0417
    172  CE2        2.4780   14.1240   -0.2880 C.ar  159  TYR159      0.0417
    173  CZ         3.7620   14.1350    0.2090 C.ar  159  TYR159      0.1957
    174  OH         3.9690   14.1250    1.5690 O.3   159  TYR159     -0.2866
@<TRIPOS>BOND
     1     8     7    2
     2     9     7   am
     3     7     6    1
     4     5     6    1
     5     5     2    1
     6     1     2    1
     7     2     3    1
     8     3    10   am
     9     3     4    2
    10   166   165    2
    11    10    11    1
    12   161   159   ar
    13   161   162   ar
    14   165   164    1
    15   159   157   ar
    16    22    20   ar
    17   154   155    2
    18   154   153    1
    19   162   160   ar
    20    11    14    1
    21    11    12    1
    22   152   153    1
    23   157   156    1
    24   157   158   ar
    25   156   153    1
    26   164   163    1
    27   164   167    1
    28    20    21   ar
    29    20    19    1
    30    12    13    2
    31   160   158   ar
    32   167   168    1
    33    15    16    1
    34    19    16    1
    35    16    17    1
    36   168   169   ar
    37   168   170   ar
    38   169   171   ar
    39   144   143    2
    40   112   113   ar
    41   112   110   ar
    42    17    23   am
    43    17    18    2
    44   170   172   ar
    45   143   142    1
    46   113   111   ar
    47    23    24    1
    48   132   131    2
    49   110   107   ar
    50   130   133    1
    51   130   131    1
    52   130   129    1
    53   135   133    1
    54   141   142    1
    55   133   134    1
    56   171   173   ar
    57   111   109   ar
    58   142   145    1
    59   131   136   am
    60   172   173   ar
    61   107   109   ar
    62   107   105   ar
    63    24    27    1
    64    24    25    1
    65   109   108   ar
    66    27    28    1
    67   173   174    1
    68    25    26    2
    69    30    28   ar
    70    30    32   ar
    71   105   104    1
    72   105   106   ar
    73   104   101    1
    74   139   138    2
    75   103   102    2
    76   145   146    1
    77   136   137    1
    78   108   106   ar
    79   138   137    1
    80   101   102    1
    81   101   100    1
    82    73    75   ar
    83    73    71   ar
    84    28    29   ar
    85    75    74   ar
    86    32    33   ar
    87   102   114   am
    88    34    35    1
    89   137   140    1
    90   147   146   ar
    91   147   149   ar
    92    71    70   ar
    93   146   148   ar
    94    74    72   ar
    95    39    40    1
    96    39    38    1
    97   100    94   am
    98   121   120    2
    99    29    31   ar
   100   120   119    1
   101    40    41    1
   102    95    94    2
   103    70    72   ar
   104    70    69    1
   105    41    42    2
   106   149   151   ar
   107   114   115    1
   108    35    38    1
   109    35    36    1
   110    33    31   ar
   111    94    93    1
   112   117   116    2
   113    42    44    1
   114    42    43    1
   115   115   116    1
   116   148   150   ar
   117   116   118   am
   118    69    66    1
   119   118   119    1
   120    45    36   am
   121    45    46    1
   122    48    47    2
   123   119   122    1
   124   151   150   ar
   125    36    37    2
   126    68    67    2
   127    93    92    1
   128    93    96    1
   129    67    66    1
   130    47    46    1
   131    66    65    1
   132    46    49    1
   133   122   123    1
   134    49    50    1
   135    89    88    1
   136    89    91    1
   137    89    90    1
   138    52    50   ar
   139    52    54   ar
   140    96    97    1
   141    64    62   ar
   142    65    59   am
   143    99    97   am
   144    88    85    1
   145    50    51   ar
   146   123   124    1
   147    97    98    2
   148    54    55   ar
   149    78    79    2
   150    78    77    1
   151    62    63   ar
   152    62    61    1
   153    59    60    2
   154    59    58    1
   155   124   125    1
   156    85    86    1
   157    85    84    1
   158    76    77    1
   159    51    53   ar
   160    57    58    1
   161    77    80    1
   162    86    87    2
   163    80    81    1
   164    55    53   ar
   165    55    56    1
   166    61    58    1
   167   127   126    1
   168   125   126    2
   169    83    82    1
   170    81    82    1
   171   126   128    1
