@<TRIPOS>MOLECULE
tmp/2o28A01.pdb
 181 175 0 0 0
SMALL
GASTEIGER

@<TRIPOS>ATOM
      1  N        -14.5650   23.7900   15.1620 N.3    23  THR23      -0.1218
      2  CA       -15.4450   24.8880   14.7710 C.3    23  THR23       0.1862
      3  C        -14.6550   26.1750   14.6500 C.2    23  THR23       0.2287
      4  O        -13.9610   26.5620   15.5980 O.2    23  THR23      -0.2866
      5  CB       -16.5640   25.1150   15.8240 C.3    23  THR23       0.1770
      6  OG1      -17.2390   23.8760   16.0690 O.3    23  THR23      -0.2211
      7  CG2      -17.5600   26.1290   15.3190 C.3    23  THR23       0.0375
      8  N          7.7850   31.8540   24.4240 N.3    57  GLN57      -0.1231
      9  CA         6.5360   31.9130   25.1970 C.3    57  GLN57       0.1698
     10  C          6.0590   30.5390   25.5850 C.2    57  GLN57       0.2592
     11  O          5.1430   30.4030   26.3930 O.2    57  GLN57      -0.2718
     12  CB         5.4550   32.6610   24.4440 C.3    57  GLN57       0.0381
     13  CG         5.8040   34.1310   24.3290 C.3    57  GLN57       0.0905
     14  CD         4.8660   34.9050   23.4440 C.2    57  GLN57       0.2608
     15  OE1        3.6630   34.9920   23.7110 O.2    57  GLN57      -0.2717
     16  NE2        5.4120   35.4880   22.3800 N.am   57  GLN57      -0.0878
     17  N          6.6780   29.5200   25.0030 N.am   58  LEU58      -0.1980
     18  CA         6.3040   28.1380   25.3290 C.3    58  LEU58       0.1596
     19  C          7.1690   27.6170   26.4590 C.2    58  LEU58       0.2287
     20  O          6.6790   27.1110   27.4690 O.2    58  LEU58      -0.2864
     21  CB         6.4380   27.2300   24.0920 C.3    58  LEU58       0.0297
     22  CG         6.1250   25.7380   24.2850 C.3    58  LEU58       0.0022
     23  CD1        4.6940   25.5310   24.8150 C.3    58  LEU58       0.0001
     24  CD2        6.3350   25.0520   22.9820 C.3    58  LEU58       0.0001
     25  N          3.8270   23.7330   20.0570 N.3   120  VAL120     -0.1231
     26  CA         2.6920   24.5200   19.6290 C.3   120  VAL120      0.1692
     27  C          2.5760   25.7960   20.4740 C.2   120  VAL120      0.2592
     28  O          2.3710   25.7260   21.6960 O.2   120  VAL120     -0.2718
     29  CB         1.3720   23.7180   19.8510 C.3   120  VAL120      0.0266
     30  CG1        0.1950   24.5200   19.3290 C.3   120  VAL120      0.0020
     31  CG2        1.4340   22.3230   19.1560 C.3   120  VAL120      0.0020
     32  N          2.6940   26.9580   19.8390 N.am  121  VAL121     -0.1966
     33  CA         2.6030   28.2270   20.6140 C.3   121  VAL121      0.1727
     34  C          2.1450   29.3750   19.7190 C.2   121  VAL121      0.2616
     35  O          2.6480   29.5530   18.5910 O.2   121  VAL121     -0.2715
     36  CB         3.9080   28.5350   21.3750 C.3   121  VAL121      0.0290
     37  CG1        5.1250   28.5180   20.4070 C.3   121  VAL121      0.0023
     38  CG2        3.8100   29.8560   22.2160 C.3   121  VAL121      0.0023
     39  N          1.1450   30.1040   20.2140 N.am  122  VAL122     -0.1977
     40  CA         0.7200   31.3480   19.5840 C.3   122  VAL122      0.1596
     41  C          1.2460   32.5380   20.4420 C.2   122  VAL122      0.2287
     42  O          1.1250   32.5380   21.6610 O.2   122  VAL122     -0.2864
     43  CB        -0.8220   31.3680   19.3640 C.3   122  VAL122      0.0276
     44  CG1       -1.2690   32.6520   18.6550 C.3   122  VAL122      0.0022
     45  CG2       -1.2710   30.1700   18.5170 C.3   122  VAL122      0.0022
     46  N         -1.5840   37.5040   19.6610 N.3   126  CYS126     -0.1221
     47  CA        -2.4100   36.9130   18.6110 C.3   126  CYS126      0.1808
     48  C         -3.2930   35.7700   19.0730 C.2   126  CYS126      0.2601
     49  O         -3.8370   35.0410   18.2540 O.2   126  CYS126     -0.2717
     50  CB        -1.5510   36.4620   17.4330 C.3   126  CYS126      0.0970
     51  SG        -0.7580   37.8360   16.5680 S.3   126  CYS126     -0.0800
     52  N         -3.4590   35.6070   20.3750 N.am  127  ARG127     -0.1965
     53  CA        -4.3080   34.5170   20.8720 C.3   127  ARG127      0.1729
     54  C         -5.7760   34.8770   20.7500 C.2   127  ARG127      0.2617
     55  O         -6.1310   36.0610   20.7180 O.2   127  ARG127     -0.2715
     56  CB        -3.9350   34.1320   22.2990 C.3   127  ARG127      0.0348
     57  CG        -2.6410   33.3290   22.3290 C.3   127  ARG127      0.0492
     58  CD        -2.2180   32.9740   23.6990 C.3   127  ARG127      0.2205
     59  NE        -0.8000   32.6650   23.6670 N.pl3 127  ARG127     -0.0865
     60  CZ        -0.0320   32.6020   24.7440 C.cat 127  ARG127      0.5346
     61  NH1       -0.5640   32.8150   25.9460 N.pl3 127  ARG127      0.1354
     62  NH2        1.2660   32.3300   24.6220 N.pl3 127  ARG127      0.1354
     63  N         -6.6150   33.8540   20.6520 N.am  128  GLY128     -0.1940
     64  CA        -8.0380   34.0400   20.4660 C.3   128  GLY128      0.2014
     65  C         -8.3870   34.3760   19.0250 C.2   128  GLY128      0.2639
     66  O         -9.5500   34.6770   18.7230 O.2   128  GLY128     -0.2714
     67  N         -7.3810   34.3240   18.1440 N.am  129  LYS129     -0.1963
     68  CA        -7.5610   34.5310   16.7100 C.3   129  LYS129      0.1728
     69  C         -7.6820   33.2370   15.9000 C.2   129  LYS129      0.2616
     70  O         -7.6540   33.2710   14.6590 O.2   129  LYS129     -0.2715
     71  CB        -6.4030   35.3540   16.1420 C.3   129  LYS129      0.0311
     72  CG        -6.2030   36.7310   16.7920 C.3   129  LYS129      0.0038
     73  CD        -7.3620   37.6860   16.5420 C.3   129  LYS129      0.0206
     74  CE        -7.2120   38.9250   17.4180 C.3   129  LYS129      0.1093
     75  NZ        -7.4560   38.5910   18.8690 N.3   129  LYS129     -0.1314
     76  N         -7.8030   32.1030   16.5950 N.am  130  GLN130     -0.1963
     77  CA        -8.0870   30.8240   15.9690 C.3   130  GLN130      0.1733
     78  C         -6.8690   30.2530   15.2420 C.2   130  GLN130      0.2616
     79  O         -7.0210   29.2970   14.4650 O.2   130  GLN130     -0.2715
     80  CB        -9.2310   30.9480   14.9790 C.3   130  GLN130      0.0408
     81  CG       -10.5170   31.5250   15.5510 C.3   130  GLN130      0.0908
     82  CD       -11.6770   31.2540   14.6360 C.2   130  GLN130      0.2608
     83  OE1      -11.8060   31.8580   13.5560 O.2   130  GLN130     -0.2717
     84  NE2      -12.5240   30.3270   15.0450 N.am  130  GLN130     -0.0878
     85  N         -5.6940   30.8110   15.5510 N.am  131  LEU131     -0.1963
     86  CA        -4.4270   30.4010   14.9290 C.3   131  LEU131      0.1728
     87  C         -3.9110   29.1020   15.5370 C.2   131  LEU131      0.2617
     88  O         -3.2870   28.3100   14.8230 O.2   131  LEU131     -0.2715
     89  CB        -3.3640   31.4830   15.0250 C.3   131  LEU131      0.0311
     90  CG        -3.7350   32.7820   14.3360 C.3   131  LEU131      0.0022
     91  CD1       -2.5600   33.7420   14.4290 C.3   131  LEU131      0.0001
     92  CD2       -4.2100   32.5410   12.8780 C.3   131  LEU131      0.0001
     93  N         -4.1900   28.8670   16.8280 N.am  132  GLY132     -0.1940
     94  CA        -3.8540   27.5910   17.4440 C.3   132  GLY132      0.2014
     95  C         -4.7050   26.4670   16.8740 C.2   132  GLY132      0.2638
     96  O         -4.2030   25.3940   16.5790 O.2   132  GLY132     -0.2714
     97  N         -6.0040   26.7110   16.7230 N.am  133  LYS133     -0.1977
     98  CA        -6.9000   25.7650   16.0560 C.3   133  LYS133      0.1596
     99  C         -6.4930   25.5800   14.6080 C.2   133  LYS133      0.2287
    100  O         -6.5230   24.4770   14.1040 O.2   133  LYS133     -0.2864
    101  CB        -8.3640   26.1960   16.1400 C.3   133  LYS133      0.0298
    102  CG        -8.9350   26.2140   17.5650 C.3   133  LYS133      0.0038
    103  CD       -10.4730   26.4870   17.5080 C.3   133  LYS133      0.0206
    104  CE       -10.7650   27.9190   16.9930 C.3   133  LYS133      0.1093
    105  NZ       -12.1860   28.3580   17.2740 N.3   133  LYS133     -0.1314
    106  N          1.5430   15.3980   23.9300 N.3   154  GLU154     -0.1231
    107  CA         1.4150   15.4210   25.3840 C.3   154  GLU154      0.1699
    108  C          1.0480   16.8330   25.7490 C.2   154  GLU154      0.2592
    109  O          1.4730   17.7720   25.0710 O.2   154  GLU154     -0.2718
    110  CB         2.7250   14.9970   26.0450 C.3   154  GLU154      0.0402
    111  CG         3.0750   13.5160   25.7300 C.3   154  GLU154      0.1161
    112  CD         3.8560   13.3200   24.4120 C.2   154  GLU154      0.3649
    113  OE1        4.5040   14.2930   23.9120 O.co2 154  GLU154     -0.2457
    114  OE2        3.8210   12.1760   23.8980 O.co2 154  GLU154     -0.2457
    115  N          0.2330   17.0040   26.7860 N.am  155  CYS155     -0.1956
    116  CA        -0.0630   18.3650   27.2750 C.3   155  CYS155      0.1843
    117  C         -0.4740   18.3170   28.7360 C.2   155  CYS155      0.2625
    118  O         -0.9630   17.2910   29.2220 O.2   155  CYS155     -0.2714
    119  CB        -1.2080   18.9840   26.4640 C.3   155  CYS155      0.0997
    120  SG        -2.7890   18.0560   26.5710 S.3   155  CYS155     -0.0797
    121  N         -0.3300   19.4490   29.4180 N.am  156  LEU156     -0.1977
    122  CA        -0.7890   19.5330   30.8000 C.3   156  LEU156      0.1596
    123  C         -2.3060   19.3290   30.8200 C.2   156  LEU156      0.2287
    124  O         -2.9720   19.6010   29.8280 O.2   156  LEU156     -0.2864
    125  CB        -0.3460   20.8880   31.4080 C.3   156  LEU156      0.0297
    126  CG         1.1330   20.9180   31.8040 C.3   156  LEU156      0.0022
    127  CD1        1.6350   22.3450   32.0810 C.3   156  LEU156      0.0001
    128  CD2        1.3900   19.9780   33.0170 C.3   156  LEU156      0.0001
    129  N         -4.4060   21.0070   31.8690 N.3   158  GLN158     -0.1231
    130  CA        -5.0020   22.3160   31.6330 C.3   158  GLN158      0.1698
    131  C         -5.2680   22.6270   30.1520 C.2   158  GLN158      0.2592
    132  O         -6.0620   23.5440   29.8660 O.2   158  GLN158     -0.2718
    133  CB        -4.1330   23.4010   32.2810 C.3   158  GLN158      0.0381
    134  CG        -4.0560   23.3620   33.8270 C.3   158  GLN158      0.0905
    135  CD        -3.3720   22.1070   34.4360 C.2   158  GLN158      0.2608
    136  OE1       -2.1990   21.8210   34.1760 O.2   158  GLN158     -0.2717
    137  NE2       -4.1160   21.3930   35.3000 N.am  158  GLN158     -0.0878
    138  N         -4.6270   21.8820   29.2310 N.am  159  ASN159     -0.1974
    139  CA        -4.8050   22.0500   27.7830 C.3   159  ASN159      0.1688
    140  C         -5.6220   20.9340   27.1230 C.2   159  ASN159      0.2292
    141  O         -5.8300   20.9660   25.9100 O.2   159  ASN159     -0.2864
    142  CB        -3.4490   22.1740   27.0540 C.3   159  ASN159      0.1181
    143  CG        -2.6680   23.4120   27.4640 C.2   159  ASN159      0.2629
    144  OD1       -3.1610   24.2510   28.2200 O.2   159  ASN159     -0.2716
    145  ND2       -1.4450   23.5360   26.9560 N.am  159  ASN159     -0.0877
    146  N         -8.7930   20.1350   26.9630 N.3   161  GLY161     -0.1210
    147  CA        -9.9820   20.5850   26.2490 C.3   161  GLY161      0.1956
    148  C         -9.6720   21.2350   24.9060 C.2   161  GLY161      0.2612
    149  O        -10.5070   21.2330   23.9870 O.2   161  GLY161     -0.2717
    150  N         -8.4710   21.7920   24.7860 N.am  162  PHE162     -0.1962
    151  CA        -8.0650   22.3710   23.5100 C.3   162  PHE162      0.1771
    152  C         -7.9400   21.2600   22.4960 C.2   162  PHE162      0.2619
    153  O         -8.6140   21.2670   21.4880 O.2   162  PHE162     -0.2715
    154  CB        -6.7670   23.1770   23.6520 C.3   162  PHE162      0.0574
    155  CG        -6.2660   23.7320   22.3710 C.ar  162  PHE162     -0.0200
    156  CD1       -6.9650   24.7620   21.7130 C.ar  162  PHE162     -0.0042
    157  CD2       -5.0870   23.2340   21.7980 C.ar  162  PHE162     -0.0042
    158  CE1       -6.4990   25.2920   20.5120 C.ar  162  PHE162     -0.0003
    159  CE2       -4.6160   23.7490   20.5980 C.ar  162  PHE162     -0.0003
    160  CZ        -5.3260   24.7600   19.9350 C.ar  162  PHE162     -0.0000
    161  N         -7.1160   20.2630   22.7880 N.am  163  TYR163     -0.1974
    162  CA        -6.8870   19.1870   21.8190 C.3   163  TYR163      0.1639
    163  C         -8.0810   18.3010   21.5340 C.2   163  TYR163      0.2290
    164  O         -8.1980   17.7400   20.4500 O.2   163  TYR163     -0.2864
    165  CB        -5.6350   18.3760   22.2000 C.3   163  TYR163      0.0560
    166  CG        -4.4020   19.2550   22.2390 C.ar  163  TYR163     -0.0198
    167  CD1       -3.7560   19.6280   21.0520 C.ar  163  TYR163     -0.0009
    168  CD2       -3.8580   19.7040   23.4530 C.ar  163  TYR163     -0.0009
    169  CE1       -2.6230   20.4290   21.0690 C.ar  163  TYR163      0.0417
    170  CE2       -2.7040   20.5220   23.4680 C.ar  163  TYR163      0.0417
    171  CZ        -2.1090   20.8760   22.2720 C.ar  163  TYR163      0.1957
    172  OH        -0.9720   21.6530   22.2720 O.3   163  TYR163     -0.2866
    173  N        -10.8080   19.2810   20.6530 N.3   165  LYS165     -0.1245
    174  CA       -11.4860   19.9170   19.5200 C.3   165  LYS165      0.1561
    175  C        -11.0890   19.3050   18.1630 C.2   165  LYS165      0.2260
    176  O        -11.8500   19.3610   17.1800 O.2   165  LYS165     -0.2867
    177  CB       -11.1980   21.4270   19.5460 C.3   165  LYS165      0.0271
    178  CG       -11.7100   22.1620   20.7880 C.3   165  LYS165      0.0035
    179  CD       -11.4480   23.6730   20.6860 C.3   165  LYS165      0.0206
    180  CE       -11.6490   24.4090   22.0330 C.3   165  LYS165      0.1093
    181  NZ       -13.1000   24.5410   22.4800 N.3   165  LYS165     -0.1314
@<TRIPOS>BOND
     1    92    90    1
     2    83    82    2
     3   100    99    2
     4    90    91    1
     5    90    89    1
     6    79    78    2
     7    99    98    1
     8    82    84   am
     9    82    81    1
    10     3     2    1
    11     3     4    2
    12    70    69    2
    13     2     1    1
    14     2     5    1
    15    88    87    2
    16    86    89    1
    17    86    87    1
    18    86    85    1
    19    80    81    1
    20    80    77    1
    21    78    85   am
    22    78    77    1
    23     7     5    1
    24    87    93   am
    25     5     6    1
    26    69    76   am
    27    69    68    1
    28    77    76    1
    29    98   101    1
    30    98    97    1
    31   101   102    1
    32    71    68    1
    33    71    72    1
    34    73    72    1
    35    73    74    1
    36    51    50    1
    37    96    95    2
    38    68    67    1
    39    97    95   am
    40    93    94    1
    41    95    94    1
    42   104   105    1
    43   104   103    1
    44   176   175    2
    45    74    75    1
    46    50    47    1
    47   103   102    1
    48    67    65   am
    49   175   174    1
    50    49    48    2
    51    45    43    1
    52    35    34    2
    53    47    48    1
    54    47    46    1
    55    44    43    1
    56    66    65    2
    57    65    64    1
    58    48    52   am
    59    31    29    1
    60    30    29    1
    61    43    40    1
    62   174   177    1
    63   174   173    1
    64   177   178    1
    65    40    39    1
    66    40    41    1
    67    26    29    1
    68    26    25    1
    69    26    27    1
    70    34    39   am
    71    34    33    1
    72    32    27   am
    73    32    33    1
    74   160   158   ar
    75   160   159   ar
    76    52    53    1
    77    37    36    1
    78    41    42    2
    79   164   163    2
    80    64    63    1
    81    27    28    2
    82   158   156   ar
    83   159   157   ar
    84    33    36    1
    85    63    54   am
    86   179   178    1
    87   179   180    1
    88    55    54    2
    89    54    53    1
    90    53    56    1
    91   167   169   ar
    92   167   166   ar
    93   169   171   ar
    94    36    38    1
    95   153   152    2
    96   163   162    1
    97   156   155   ar
    98   157   155   ar
    99   162   165    1
   100   162   161    1
   101   180   181    1
   102   165   166    1
   103   166   168   ar
   104   171   172    1
   105   171   170   ar
   106    56    57    1
   107    57    58    1
   108   155   154    1
   109    16    14   am
   110   152   161   am
   111   152   151    1
   112    24    22    1
   113    14    15    2
   114    14    13    1
   115   168   170   ar
   116   151   154    1
   117   151   150    1
   118    59    58    1
   119    59    60    2
   120   114   112   ar
   121   113   112   ar
   122   106   107    1
   123   149   148    2
   124    21    22    1
   125    21    18    1
   126    22    23    1
   127    13    12    1
   128   112   111    1
   129     8     9    1
   130    12     9    1
   131    62    60    1
   132    60    61    1
   133   150   148   am
   134   148   147    1
   135    17    18    1
   136    17    10   am
   137   109   108    2
   138     9    10    1
   139    18    19    1
   140   107   108    1
   141   107   110    1
   142    10    11    2
   143   111   110    1
   144   108   115   am
   145   141   140    2
   146   147   146    1
   147    19    20    2
   148   119   120    1
   149   119   116    1
   150   115   116    1
   151   145   143   am
   152   142   143    1
   153   142   139    1
   154   140   139    1
   155   116   117    1
   156   143   144    2
   157   139   138    1
   158   117   118    2
   159   117   121   am
   160   138   131   am
   161   121   122    1
   162   124   123    2
   163   132   131    2
   164   131   130    1
   165   122   123    1
   166   122   125    1
   167   125   126    1
   168   130   129    1
   169   130   133    1
   170   126   127    1
   171   126   128    1
   172   133   134    1
   173   134   135    1
   174   136   135    2
   175   135   137   am
