@<TRIPOS>MOLECULE
tmp/2o28A00.pdb
 113 109 0 0 0
SMALL
GASTEIGER

@<TRIPOS>ATOM
      1  N          6.6780   29.5200   25.0030 N.3    58  LEU58      -0.1231
      2  CA         6.3040   28.1380   25.3290 C.3    58  LEU58       0.1693
      3  C          7.1690   27.6170   26.4590 C.2    58  LEU58       0.2593
      4  O          6.6790   27.1110   27.4690 O.2    58  LEU58      -0.2718
      5  CB         6.4380   27.2300   24.0920 C.3    58  LEU58       0.0284
      6  CG         6.1250   25.7380   24.2850 C.3    58  LEU58       0.0019
      7  CD1        4.6940   25.5310   24.8150 C.3    58  LEU58       0.0001
      8  CD2        6.3350   25.0520   22.9820 C.3    58  LEU58       0.0001
      9  N          8.4670   27.7310   26.2710 N.am   59  THR59      -0.1939
     10  CA         9.4360   27.2360   27.2310 C.3    59  THR59       0.2028
     11  C         10.7830   27.9110   26.9500 C.2    59  THR59       0.2642
     12  O         10.8660   28.7660   26.0530 O.2    59  THR59      -0.2714
     13  CB         9.5320   25.6590   27.2190 C.3    59  THR59       0.1808
     14  OG1       10.3250   25.2170   28.3260 O.3    59  THR59      -0.2208
     15  CG2       10.1280   25.1370   25.9330 C.3    59  THR59       0.0379
     16  N         11.8170   27.5370   27.7010 N.am   60  GLU60      -0.1976
     17  CA        13.1310   28.1530   27.5580 C.3    60  GLU60       0.1602
     18  C         13.6040   27.9650   26.1290 C.2    60  GLU60       0.2287
     19  O         13.5360   26.8560   25.5830 O.2    60  GLU60      -0.2864
     20  CB        14.1520   27.5430   28.5290 C.3    60  GLU60       0.0415
     21  CG        13.9460   27.9110   29.9960 C.3    60  GLU60       0.1163
     22  CD        13.1040   26.8900   30.7730 C.2    60  GLU60       0.3649
     23  OE1       12.3110   26.1340   30.1540 O.co2  60  GLU60      -0.2457
     24  OE2       13.2400   26.8440   32.0210 O.co2  60  GLU60      -0.2457
     25  N          2.7080   15.7590   17.3750 N.3   117  VAL117     -0.1231
     26  CA         2.5250   17.2290   17.3450 C.3   117  VAL117      0.1692
     27  C          3.3580   17.8240   18.4920 C.2   117  VAL117      0.2592
     28  O          3.2580   17.3700   19.6460 O.2   117  VAL117     -0.2718
     29  CB         1.0190   17.6510   17.5010 C.3   117  VAL117      0.0266
     30  CG1        0.9140   19.1660   17.6260 C.3   117  VAL117      0.0020
     31  CG2        0.1760   17.1400   16.3520 C.3   117  VAL117      0.0020
     32  N          4.2590   18.7560   18.1640 N.am  118  GLU118     -0.1966
     33  CA         5.2160   19.2960   19.1250 C.3   118  GLU118      0.1733
     34  C          5.2690   20.8150   19.0320 C.2   118  GLU118      0.2616
     35  O          5.0300   21.3560   17.9710 O.2   118  GLU118     -0.2715
     36  CB         6.6200   18.7790   18.7930 C.3   118  GLU118      0.0429
     37  CG         6.8660   17.3050   19.1550 C.3   118  GLU118      0.1163
     38  CD         6.8570   17.0250   20.6600 C.2   118  GLU118      0.3649
     39  OE1        7.4500   17.7790   21.4600 O.co2 118  GLU118     -0.2457
     40  OE2        6.2830   15.9910   21.0620 O.co2 118  GLU118     -0.2457
     41  N          5.5720   21.4660   20.1510 N.am  119  ASP119     -0.1957
     42  CA         6.0540   22.8810   20.1640 C.3   119  ASP119      0.1840
     43  C          5.0420   23.8550   19.5380 C.2   119  ASP119      0.2621
     44  O          5.3220   24.6400   18.5940 O.2   119  ASP119     -0.2715
     45  CB         7.4660   22.9520   19.5510 C.3   119  ASP119      0.1450
     46  CG         8.4620   22.0450   20.2950 C.2   119  ASP119      0.3671
     47  OD1        8.2430   21.7820   21.4900 O.co2 119  ASP119     -0.2456
     48  OD2        9.4760   21.6250   19.7050 O.co2 119  ASP119     -0.2456
     49  N          3.8270   23.7330   20.0570 N.am  120  VAL120     -0.1977
     50  CA         2.6920   24.5200   19.6290 C.3   120  VAL120      0.1596
     51  C          2.5760   25.7960   20.4740 C.2   120  VAL120      0.2287
     52  O          2.3710   25.7260   21.6960 O.2   120  VAL120     -0.2864
     53  CB         1.3720   23.7180   19.8510 C.3   120  VAL120      0.0276
     54  CG1        0.1950   24.5200   19.3290 C.3   120  VAL120      0.0022
     55  CG2        1.4340   22.3230   19.1560 C.3   120  VAL120      0.0022
     56  N          0.3750   13.5090   21.1020 N.3   153  LEU153     -0.1231
     57  CA         0.9650   14.7050   21.6710 C.3   153  LEU153      0.1693
     58  C          0.8250   14.5690   23.1820 C.2   153  LEU153      0.2592
     59  O          0.0980   13.6880   23.6420 O.2   153  LEU153     -0.2718
     60  CB         0.2050   15.9450   21.1420 C.3   153  LEU153      0.0284
     61  CG        -1.3090   16.0580   21.3670 C.3   153  LEU153      0.0019
     62  CD1       -1.6140   16.5620   22.7650 C.3   153  LEU153      0.0001
     63  CD2       -1.9690   16.9900   20.3080 C.3   153  LEU153      0.0001
     64  N          1.5430   15.3980   23.9300 N.am  154  GLU154     -0.1966
     65  CA         1.4150   15.4210   25.3840 C.3   154  GLU154      0.1733
     66  C          1.0480   16.8330   25.7490 C.2   154  GLU154      0.2616
     67  O          1.4730   17.7720   25.0710 O.2   154  GLU154     -0.2715
     68  CB         2.7250   14.9970   26.0450 C.3   154  GLU154      0.0429
     69  CG         3.0750   13.5160   25.7300 C.3   154  GLU154      0.1163
     70  CD         3.8560   13.3200   24.4120 C.2   154  GLU154      0.3649
     71  OE1        4.5040   14.2930   23.9120 O.co2 154  GLU154     -0.2457
     72  OE2        3.8210   12.1760   23.8980 O.co2 154  GLU154     -0.2457
     73  N          0.2330   17.0040   26.7860 N.am  155  CYS155     -0.1968
     74  CA        -0.0630   18.3650   27.2750 C.3   155  CYS155      0.1712
     75  C         -0.4740   18.3170   28.7360 C.2   155  CYS155      0.2296
     76  O         -0.9630   17.2910   29.2220 O.2   155  CYS155     -0.2864
     77  CB        -1.2080   18.9840   26.4640 C.3   155  CYS155      0.0983
     78  SG        -2.7890   18.0560   26.5710 S.3   155  CYS155     -0.0798
     79  N         -7.1160   20.2630   22.7880 N.3   163  TYR163     -0.1241
     80  CA        -6.8870   19.1870   21.8190 C.3   163  TYR163      0.1605
     81  C         -8.0810   18.3010   21.5340 C.2   163  TYR163      0.2264
     82  O         -8.1980   17.7400   20.4500 O.2   163  TYR163     -0.2867
     83  CB        -5.6350   18.3760   22.2000 C.3   163  TYR163      0.0534
     84  CG        -4.4020   19.2550   22.2390 C.ar  163  TYR163     -0.0201
     85  CD1       -3.7560   19.6280   21.0520 C.ar  163  TYR163     -0.0009
     86  CD2       -3.8580   19.7040   23.4530 C.ar  163  TYR163     -0.0009
     87  CE1       -2.6230   20.4290   21.0690 C.ar  163  TYR163      0.0417
     88  CE2       -2.7040   20.5220   23.4680 C.ar  163  TYR163      0.0417
     89  CZ        -2.1090   20.8760   22.2720 C.ar  163  TYR163      0.1957
     90  OH        -0.9720   21.6530   22.2720 O.3   163  TYR163     -0.2866
     91  N          2.4890    9.0890   30.5490 N.3   175  TYR175     -0.1241
     92  CA         3.6760    9.6930   29.9450 C.3   175  TYR175      0.1605
     93  C          4.7070    9.7850   31.0420 C.2   175  TYR175      0.2264
     94  O          4.4020   10.2300   32.1660 O.2   175  TYR175     -0.2867
     95  CB         3.2950   11.0580   29.4320 C.3   175  TYR175      0.0534
     96  CG         4.3620   11.9030   28.7700 C.ar  175  TYR175     -0.0201
     97  CD1        5.1160   11.4280   27.6760 C.ar  175  TYR175     -0.0009
     98  CD2        4.5560   13.2080   29.1940 C.ar  175  TYR175     -0.0009
     99  CE1        6.0570   12.2690   27.0330 C.ar  175  TYR175      0.0417
    100  CE2        5.4900   14.0550   28.5810 C.ar  175  TYR175      0.0417
    101  CZ         6.2430   13.5760   27.4980 C.ar  175  TYR175      0.1957
    102  OH         7.1410   14.4570   26.9100 O.3   175  TYR175     -0.2866
    103  N         14.4120   13.8560   33.1480 N.3   179  ARG179     -0.1245
    104  CA        14.9330   15.1830   32.7920 C.3   179  ARG179      0.1563
    105  C         16.4040   15.2190   33.1080 C.2   179  ARG179      0.2260
    106  O         16.8020   15.0030   34.2470 O.2   179  ARG179     -0.2867
    107  CB        14.2200   16.2520   33.6010 C.3   179  ARG179      0.0307
    108  CG        12.7350   16.2820   33.4090 C.3   179  ARG179      0.0489
    109  CD        12.3830   17.3050   32.3810 C.3   179  ARG179      0.2205
    110  NE        10.9440   17.4480   32.1940 N.pl3 179  ARG179     -0.0865
    111  CZ        10.3880   18.3680   31.4100 C.cat 179  ARG179      0.5346
    112  NH1       11.1530   19.2130   30.7310 N.pl3 179  ARG179      0.1354
    113  NH2        9.0710   18.4200   31.2860 N.pl3 179  ARG179      0.1354
@<TRIPOS>BOND
     1    31    29    1
     2    26    25    1
     3    26    29    1
     4    26    27    1
     5    29    30    1
     6    35    34    2
     7    32    27   am
     8    32    33    1
     9    27    28    2
    10    44    43    2
    11    36    33    1
    12    36    37    1
    13    34    33    1
    14    34    41   am
    15    37    38    1
    16    55    53    1
    17    54    53    1
    18    43    49   am
    19    43    42    1
    20    45    42    1
    21    45    46    1
    22    50    53    1
    23    50    49    1
    24    50    51    1
    25    48    46   ar
    26    41    42    1
    27    46    47   ar
    28    63    61    1
    29    82    81    2
    30    51    52    2
    31    38    40   ar
    32    38    39   ar
    33    85    87   ar
    34    85    84   ar
    35    87    89   ar
    36    56    57    1
    37    60    61    1
    38    60    57    1
    39    61    62    1
    40    81    80    1
    41    57    58    1
    42    80    83    1
    43    80    79    1
    44    83    84    1
    45    84    86   ar
    46    89    90    1
    47    89    88   ar
    48     8     6    1
    49    58    59    2
    50    58    64   am
    51    86    88   ar
    52    72    70   ar
    53    71    70   ar
    54    64    65    1
    55     5     6    1
    56     5     2    1
    57     6     7    1
    58    70    69    1
    59     1     2    1
    60    67    66    2
    61     2     3    1
    62    65    66    1
    63    65    68    1
    64    19    18    2
    65    69    68    1
    66    66    73   am
    67    15    13    1
    68    12    11    2
    69    18    17    1
    70     9     3   am
    71     9    10    1
    72     3     4    2
    73    77    78    1
    74    77    74    1
    75    73    74    1
    76   102   101    1
    77    11    10    1
    78    11    16   am
    79    99   101   ar
    80    99    97   ar
    81    13    10    1
    82    13    14    1
    83    74    75    1
    84   101   100   ar
    85    17    16    1
    86    17    20    1
    87    97    96   ar
    88    20    21    1
    89   100    98   ar
    90    75    76    2
    91    96    98   ar
    92    96    95    1
    93    95    92    1
    94    92    91    1
    95    92    93    1
    96    21    22    1
    97    23    22   ar
    98   112   111    1
    99    22    24   ar
   100    93    94    2
   101   113   111    1
   102   111   110    2
   103   110   109    1
   104   109   108    1
   105   104   105    1
   106   104   103    1
   107   104   107    1
   108   105   106    2
   109   108   107    1
