@<TRIPOS>MOLECULE
tmp/2o2cC00.pdb
 125 115 0 0 0
SMALL
GASTEIGER

@<TRIPOS>ATOM
      1  N         38.9730  -35.3600   74.4420 N.3   160  ILE160     -0.1231
      2  CA        38.0010  -36.1190   73.6550 C.3   160  ILE160      0.1692
      3  C         36.9950  -36.8450   74.5600 C.2   160  ILE160      0.2593
      4  O         37.2870  -37.1060   75.7280 O.2   160  ILE160     -0.2718
      5  CB        38.7420  -37.0810   72.6610 C.3   160  ILE160      0.0266
      6  CG1       37.8010  -37.5610   71.5510 C.3   160  ILE160      0.0019
      7  CG2       39.4250  -38.2290   73.4060 C.3   160  ILE160      0.0020
      8  CD1       38.5240  -38.0610   70.3110 C.3   160  ILE160      0.0001
      9  N         35.7830  -37.0640   74.0350 N.am  161  GLY161     -0.1942
     10  CA        34.7280  -37.7540   74.7720 C.3   161  GLY161      0.2014
     11  C         34.2780  -37.0110   76.0120 C.2   161  GLY161      0.2639
     12  O         33.7980  -35.8840   75.9140 O.2   161  GLY161     -0.2714
     13  N         34.5130  -37.6160   77.1760 N.am  162  GLY162     -0.1939
     14  CA        34.1450  -37.0000   78.4440 C.3   162  GLY162      0.2014
     15  C         34.9160  -35.7350   78.7920 C.2   162  GLY162      0.2639
     16  O         34.4860  -34.9420   79.6360 O.2   162  GLY162     -0.2714
     17  N         36.0490  -35.5440   78.1210 N.am  163  SER163     -0.1949
     18  CA        36.8890  -34.3710   78.3170 C.3   163  SER163      0.1924
     19  C         36.6630  -33.3490   77.1900 C.2   163  SER163      0.2314
     20  O         37.5000  -32.4680   76.9630 O.2   163  SER163     -0.2863
     21  CB        38.3540  -34.7980   78.3710 C.3   163  SER163      0.2116
     22  OG        38.6090  -35.6140   79.5020 O.3   163  SER163     -0.2180
     23  N         42.8140  -31.4690   78.6260 N.3   212  ALA212     -0.1231
     24  CA        41.8380  -32.1910   79.4300 C.3   212  ALA212      0.1694
     25  C         41.8520  -33.6910   79.1540 C.2   212  ALA212      0.2593
     26  O         41.5270  -34.1330   78.0490 O.2   212  ALA212     -0.2718
     27  CB        40.4530  -31.6130   79.1630 C.3   212  ALA212      0.0304
     28  N         42.2130  -34.4720   80.1700 N.am  213  SER213     -0.1938
     29  CA        42.2770  -35.9290   80.0480 C.3   213  SER213      0.2055
     30  C         42.4030  -36.5760   81.4230 C.2   213  SER213      0.2643
     31  O         43.3580  -36.2960   82.1410 O.2   213  SER213     -0.2714
     32  CB        43.4780  -36.3230   79.1700 C.3   213  SER213      0.2130
     33  OG        43.5770  -37.7230   78.9910 O.3   213  SER213     -0.2179
     34  N         41.4700  -37.4680   81.7600 N.am  214  LYS214     -0.1963
     35  CA        41.4700  -38.1780   83.0460 C.3   214  LYS214      0.1728
     36  C         42.7280  -39.0170   83.2540 C.2   214  LYS214      0.2616
     37  O         43.4160  -38.8810   84.2640 O.2   214  LYS214     -0.2715
     38  CB        40.2080  -39.0520   83.1590 C.3   214  LYS214      0.0311
     39  CG        39.9240  -39.6210   84.5470 C.3   214  LYS214      0.0038
     40  CD        38.5850  -40.3170   84.6150 C.3   214  LYS214      0.0206
     41  CE        38.5480  -41.2270   85.8310 C.3   214  LYS214      0.1093
     42  NZ        37.2600  -41.9530   85.9630 N.3   214  LYS214     -0.1314
     43  N         43.0580  -39.8090   82.2390 N.am  215  THR215     -0.1951
     44  CA        44.2180  -40.6930   82.2580 C.3   215  THR215      0.1897
     45  C         45.5210  -40.0200   81.8350 C.2   215  THR215      0.2313
     46  O         46.6040  -40.4380   82.2560 O.2   215  THR215     -0.2863
     47  CB        43.9980  -41.8870   81.3070 C.3   215  THR215      0.1794
     48  OG1       43.7420  -41.3990   79.9790 O.3   215  THR215     -0.2208
     49  CG2       42.8290  -42.7480   81.7740 C.3   215  THR215      0.0378
     50  N         45.4540  -40.8610   76.6920 N.3   218  THR218     -0.1218
     51  CA        44.6010  -41.0490   75.5020 C.3   218  THR218      0.1862
     52  C         45.3520  -40.5600   74.2670 C.2   218  THR218      0.2287
     53  O         45.7760  -39.4050   74.2180 O.2   218  THR218     -0.2866
     54  CB        43.2540  -40.2980   75.6470 C.3   218  THR218      0.1770
     55  OG1       42.5390  -40.8190   76.7700 O.3   218  THR218     -0.2211
     56  CG2       42.3830  -40.4630   74.4040 C.3   218  THR218      0.0375
     57  N         44.2430  -37.1190   72.4290 N.3   221  THR221     -0.1218
     58  CA        44.5320  -35.9500   73.2510 C.3   221  THR221      0.1862
     59  C         46.0190  -35.6430   73.3830 C.2   221  THR221      0.2287
     60  O         46.4100  -34.4880   73.2470 O.2   221  THR221     -0.2866
     61  CB        43.8380  -36.0810   74.6210 C.3   221  THR221      0.1770
     62  OG1       42.4360  -36.3010   74.3980 O.3   221  THR221     -0.2211
     63  CG2       44.0040  -34.8150   75.4600 C.3   221  THR221      0.0375
     64  N         33.6220  -40.3100   86.6290 N.3   279  GLY279     -0.1210
     65  CA        33.6070  -40.9030   85.2970 C.3   279  GLY279      0.1956
     66  C         33.7100  -39.7840   84.2760 C.2   279  GLY279      0.2612
     67  O         33.2490  -38.6740   84.5510 O.2   279  GLY279     -0.2717
     68  N         34.3420  -40.0500   83.1330 N.am  280  GLY280     -0.1942
     69  CA        34.4950  -39.0230   82.1060 C.3   280  GLY280      0.2014
     70  C         33.1890  -38.3880   81.6430 C.2   280  GLY280      0.2638
     71  O         33.0900  -37.1650   81.5330 O.2   280  GLY280     -0.2714
     72  N         32.1720  -39.2140   81.4100 N.am  281  ARG281     -0.1977
     73  CA        30.8560  -38.7360   80.9590 C.3   281  ARG281      0.1597
     74  C         30.0300  -38.1050   82.0810 C.2   281  ARG281      0.2287
     75  O         28.8620  -37.7520   81.8900 O.2   281  ARG281     -0.2864
     76  CB        30.0720  -39.8680   80.2900 C.3   281  ARG281      0.0334
     77  CG        30.0550  -41.1640   81.0830 C.3   281  ARG281      0.0492
     78  CD        29.4810  -42.3270   80.2870 C.3   281  ARG281      0.2205
     79  NE        29.3880  -43.5660   81.0770 N.pl3 281  ARG281     -0.0865
     80  CZ        30.3560  -44.4850   81.1680 C.cat 281  ARG281      0.5346
     81  NH1       31.4990  -44.3240   80.5210 N.pl3 281  ARG281      0.1354
     82  NH2       30.1930  -45.5780   81.8980 N.pl3 281  ARG281      0.1354
     83  N         26.4870  -39.8870   74.7270 N.3   362  GLN362     -0.1245
     84  CA        27.5920  -40.4950   75.4670 C.3   362  GLN362      0.1566
     85  C         27.1200  -40.9590   76.8360 C.2   362  GLN362      0.2260
     86  O         27.3490  -42.1070   77.2120 O.2   362  GLN362     -0.2867
     87  CB        28.7850  -39.5470   75.6500 C.3   362  GLN362      0.0367
     88  CG        29.9410  -40.2200   76.4310 C.3   362  GLN362      0.0905
     89  CD        31.2050  -39.3990   76.5750 C.2   362  GLN362      0.2608
     90  OE1       31.2570  -38.2260   76.2150 O.2   362  GLN362     -0.2717
     91  NE2       32.2420  -40.0270   77.1190 N.am  362  GLN362     -0.0878
     92  N         27.1680  -44.9470   76.4480 N.3   366  GLU366     -0.1245
     93  CA        28.4290  -45.4680   76.9840 C.3   366  GLU366      0.1567
     94  C         28.2260  -46.0560   78.3770 C.2   366  GLU366      0.2260
     95  O         28.9700  -46.9390   78.8030 O.2   366  GLU366     -0.2867
     96  CB        29.5420  -44.4170   76.9860 C.3   366  GLU366      0.0388
     97  CG        30.9450  -45.0150   77.1280 C.3   366  GLU366      0.1160
     98  CD        32.0460  -44.0050   76.9720 C.2   366  GLU366      0.3649
     99  OE1       32.0580  -43.0380   77.7520 O.co2 366  GLU366     -0.2457
    100  OE2       32.8990  -44.1810   76.0750 O.co2 366  GLU366     -0.2457
    101  N         33.5860  -48.8740   81.0150 N.3   519  GLN519     -0.1245
    102  CA        33.5870  -48.7580   79.5570 C.3   519  GLN519      0.1566
    103  C         34.6230  -49.6800   78.9100 C.2   519  GLN519      0.2260
    104  O         35.5060  -49.2380   78.1730 O.2   519  GLN519     -0.2867
    105  CB        33.7570  -47.2870   79.0930 C.3   519  GLN519      0.0367
    106  CG        34.9520  -46.4910   79.6630 C.3   519  GLN519      0.0905
    107  CD        34.8000  -46.1150   81.1290 C.2   519  GLN519      0.2608
    108  OE1       33.7250  -45.7040   81.5740 O.2   519  GLN519     -0.2717
    109  NE2       35.8740  -46.2780   81.8920 N.am  519  GLN519     -0.0878
    110  N         35.5400  -50.1410   74.6630 N.3   522  VAL522     -0.1245
    111  CA        36.3880  -49.2880   73.8370 C.3   522  VAL522      0.1561
    112  C         37.8070  -49.8520   73.6790 C.2   522  VAL522      0.2260
    113  O         38.5620  -49.4030   72.8150 O.2   522  VAL522     -0.2867
    114  CB        36.4500  -47.8250   74.3990 C.3   522  VAL522      0.0252
    115  CG1       35.0420  -47.2660   74.5860 C.3   522  VAL522      0.0019
    116  CG2       37.2280  -47.7590   75.7210 C.3   522  VAL522      0.0019
    117  N         41.0820  -49.8680   70.3940 N.3   526  LYS526     -0.1245
    118  CA        42.3530  -49.2250   70.7470 C.3   526  LYS526      0.1561
    119  C         43.5520  -50.1480   70.5220 C.2   526  LYS526      0.2260
    120  O         44.5550  -49.7250   69.9460 O.2   526  LYS526     -0.2867
    121  CB        42.3500  -48.7660   72.2120 C.3   526  LYS526      0.0271
    122  CG        41.4600  -47.5710   72.5180 C.3   526  LYS526      0.0035
    123  CD        41.5530  -47.2090   73.9930 C.3   526  LYS526      0.0206
    124  CE        40.6110  -46.0690   74.3490 C.3   526  LYS526      0.1093
    125  NZ        40.6730  -45.7500   75.8030 N.3   526  LYS526     -0.1314
@<TRIPOS>BOND
     1   120   119    2
     2     8     6    1
     3   117   118    1
     4   119   118    1
     5   118   121    1
     6     6     5    1
     7   121   122    1
     8    57    58    1
     9   122   123    1
    10     5     7    1
    11     5     2    1
    12   113   112    2
    13    60    59    2
    14    58    59    1
    15    58    61    1
    16     2     1    1
    17     2     3    1
    18   112   111    1
    19   111   114    1
    20   111   110    1
    21   123   124    1
    22     9     3   am
    23     9    10    1
    24    53    52    2
    25    52    51    1
    26   124   125    1
    27    62    61    1
    28   114   115    1
    29   114   116    1
    30    56    54    1
    31     3     4    2
    32    61    63    1
    33    83    84    1
    34    10    11    1
    35    84    87    1
    36    84    85    1
    37    51    54    1
    38    51    50    1
    39    54    55    1
    40    87    88    1
    41    12    11    2
    42    11    13   am
    43   100    98   ar
    44    90    89    2
    45    88    89    1
    46    92    93    1
    47    89    91   am
    48    85    86    2
    49    20    19    2
    50    98    97    1
    51    98    99   ar
    52    93    96    1
    53    93    94    1
    54    96    97    1
    55    13    14    1
    56    19    18    1
    57    26    25    2
    58    17    18    1
    59    17    15   am
    60   104   103    2
    61    18    21    1
    62    21    22    1
    63    94    95    2
    64    14    15    1
    65    23    24    1
    66    15    16    2
    67   103   102    1
    68    33    32    1
    69   105   102    1
    70   105   106    1
    71    25    24    1
    72    25    28   am
    73    27    24    1
    74    32    29    1
    75   102   101    1
    76   106   107    1
    77    48    47    1
    78    29    28    1
    79    29    30    1
    80    78    79    1
    81    78    77    1
    82    76    73    1
    83    76    77    1
    84    81    80    1
    85    73    72    1
    86    73    74    1
    87    79    80    2
    88   107   108    2
    89   107   109   am
    90    80    82    1
    91    47    49    1
    92    47    44    1
    93    72    70   am
    94    30    34   am
    95    30    31    2
    96    71    70    2
    97    70    69    1
    98    34    35    1
    99    45    46    2
   100    45    44    1
   101    75    74    2
   102    69    68    1
   103    43    44    1
   104    43    36   am
   105    35    38    1
   106    35    36    1
   107    68    66   am
   108    38    39    1
   109    36    37    2
   110    66    67    2
   111    66    65    1
   112    39    40    1
   113    40    41    1
   114    65    64    1
   115    41    42    1
