@<TRIPOS>MOLECULE
tmp/2o2dB00.pdb
 121 111 0 0 0
SMALL
GASTEIGER

@<TRIPOS>ATOM
      1  N         15.3310   23.1880    7.7430 N.3   168  ILE168     -0.1231
      2  CA        15.2740   24.3170    6.8260 C.3   168  ILE168      0.1692
      3  C         15.1610   25.6500    7.5690 C.2   168  ILE168      0.2593
      4  O         14.7060   25.6860    8.7110 O.2   168  ILE168     -0.2718
      5  CB        14.1420   24.0900    5.7780 C.3   168  ILE168      0.0266
      6  CG1       14.3300   25.0070    4.5650 C.3   168  ILE168      0.0019
      7  CG2       12.7620   24.1970    6.4340 C.3   168  ILE168      0.0020
      8  CD1       13.5700   24.5570    3.3350 C.3   168  ILE168      0.0001
      9  N         15.6720   26.7100    6.9370 N.am  169  GLY169     -0.1942
     10  CA        15.6420   28.0530    7.4970 C.3   169  GLY169      0.2014
     11  C         16.3620   28.1880    8.8190 C.2   169  GLY169      0.2639
     12  O         17.5780   28.0670    8.8760 O.2   169  GLY169     -0.2714
     13  N         15.5900   28.3860    9.8860 N.am  170  GLY170     -0.1939
     14  CA        16.1570   28.5320   11.2170 C.3   170  GLY170      0.2014
     15  C         16.8740   27.3030   11.7540 C.2   170  GLY170      0.2639
     16  O         17.7270   27.3950   12.6480 O.2   170  GLY170     -0.2714
     17  N         16.5540   26.1640   11.1510 N.am  171  SER171     -0.1949
     18  CA        17.1330   24.8730   11.5000 C.3   171  SER171      0.1924
     19  C         18.2060   24.4630   10.4860 C.2   171  SER171      0.2314
     20  O         18.6280   23.3020   10.4420 O.2   171  SER171     -0.2863
     21  CB        16.0260   23.8310   11.5310 C.3   171  SER171      0.2116
     22  OG        15.1300   24.0620   12.5980 O.3   171  SER171     -0.2180
     23  N         16.3010   18.4490   12.4800 N.3   220  ALA220     -0.1231
     24  CA        16.1130   19.7260   13.1550 C.3   220  ALA220      0.1694
     25  C         14.8690   20.4690   12.6880 C.2   220  ALA220      0.2593
     26  O         14.7650   20.8430   11.5210 O.2   220  ALA220     -0.2718
     27  CB        17.3470   20.5800   12.9390 C.3   220  ALA220      0.0304
     28  N         13.9190   20.6700   13.5980 N.am  221  SER221     -0.1938
     29  CA        12.6780   21.3790   13.2830 C.3   221  SER221      0.2055
     30  C         11.9170   21.7460   14.5360 C.2   221  SER221      0.2643
     31  O         11.5030   20.8620   15.2800 O.2   221  SER221     -0.2714
     32  CB        11.7730   20.5420   12.3680 C.3   221  SER221      0.2130
     33  OG        10.5310   21.1930   12.1400 O.3   221  SER221     -0.2179
     34  N         11.6630   23.0440   14.7100 N.am  222  LYS222     -0.1963
     35  CA        10.9320   23.5760   15.8660 C.3   222  LYS222      0.1728
     36  C          9.5940   22.9010   16.1280 C.2   222  LYS222      0.2616
     37  O          9.4150   22.2550   17.1550 O.2   222  LYS222     -0.2715
     38  CB        10.7610   25.1010   15.7330 C.3   222  LYS222      0.0311
     39  CG        10.5030   25.8220   17.0480 C.3   222  LYS222      0.0038
     40  CD        10.4340   27.3170   16.9080 C.3   222  LYS222      0.0206
     41  CE         9.8630   27.9180   18.1840 C.3   222  LYS222      0.1093
     42  NZ         9.7070   29.3970   18.1230 N.3   222  LYS222     -0.1314
     43  N          8.7030   22.9750   15.1460 N.am  223  THR223     -0.1951
     44  CA         7.3700   22.3860   15.2390 C.3   223  THR223      0.1897
     45  C          7.3500   20.8940   14.9090 C.2   223  THR223      0.2313
     46  O          6.4210   20.1820   15.2910 O.2   223  THR223     -0.2863
     47  CB         6.4070   23.0820   14.2620 C.3   223  THR223      0.1794
     48  OG1        6.8970   22.9260   12.9180 O.3   223  THR223     -0.2208
     49  CG2        6.2860   24.5580   14.5960 C.3   223  THR223      0.0378
     50  N          7.2340   20.8880    9.7530 N.3   226  THR226     -0.1218
     51  CA         7.6860   21.5980    8.5490 C.3   226  THR226      0.1862
     52  C          7.7850   20.5860    7.4120 C.2   226  THR226      0.2287
     53  O          8.5800   19.6510    7.4750 O.2   226  THR226     -0.2866
     54  CB         9.0520   22.2830    8.7540 C.3   226  THR226      0.1770
     55  OG1        9.0050   23.1130    9.9210 O.3   226  THR226     -0.2211
     56  CG2        9.3850   23.1550    7.5570 C.3   226  THR226      0.0375
     57  N         11.3410   19.5120    5.9160 N.3   229  THR229     -0.1218
     58  CA        12.1280   18.7510    6.8650 C.3   229  THR229      0.1862
     59  C         11.6190   17.3440    7.0880 C.2   229  THR229      0.2287
     60  O         12.4060   16.4020    7.0360 O.2   229  THR229     -0.2866
     61  CB        12.2370   19.5300    8.1770 C.3   229  THR229      0.1770
     62  OG1       12.7370   20.8360    7.8720 O.3   229  THR229     -0.2211
     63  CG2       13.1810   18.8480    9.1640 C.3   229  THR229      0.0375
     64  N         14.3230   22.2150   22.9080 N.3   282  PHE282     -0.1241
     65  CA        14.3980   23.6260   22.7610 C.3   282  PHE282      0.1605
     66  C         12.9520   24.1580   22.9140 C.2   282  PHE282      0.2264
     67  O         12.0120   23.3900   22.7650 O.2   282  PHE282     -0.2867
     68  CB        15.3330   24.1770   21.6590 C.3   282  PHE282      0.0534
     69  CG        14.7110   24.1970   20.2870 C.ar  282  PHE282     -0.0203
     70  CD1       14.8510   23.1100   19.3940 C.ar  282  PHE282     -0.0042
     71  CD2       14.0810   25.3650   19.7940 C.ar  282  PHE282     -0.0042
     72  CE1       14.3960   23.1850   18.0710 C.ar  282  PHE282     -0.0003
     73  CE2       13.6240   25.4520   18.4770 C.ar  282  PHE282     -0.0003
     74  CZ        13.7730   24.3500   17.6260 C.ar  282  PHE282     -0.0000
     75  N         13.1830   30.4350   15.3970 N.3   288  GLY288     -0.1225
     76  CA        14.0230   29.6940   14.4660 C.3   288  GLY288      0.1811
     77  C         15.2860   30.4130   14.0420 C.2   288  GLY288      0.2280
     78  O         16.3750   29.8520   14.1300 O.2   288  GLY288     -0.2866
     79  N         17.8540   36.0500    6.8250 N.3   370  GLN370     -0.1245
     80  CA        16.7440   35.4980    7.6070 C.3   370  GLN370      0.1566
     81  C         16.5580   36.2890    8.9040 C.2   370  GLN370      0.2260
     82  O         15.4470   36.7250    9.2290 O.2   370  GLN370     -0.2867
     83  CB        16.9640   34.0330    7.9930 C.3   370  GLN370      0.0367
     84  CG        15.8300   33.5270    8.8970 C.3   370  GLN370      0.0905
     85  CD        15.7560   32.0040    9.0270 C.2   370  GLN370      0.2608
     86  OE1       16.7240   31.3130    8.7260 O.2   370  GLN370     -0.2717
     87  NE2       14.6510   31.4350    9.4780 N.am  370  GLN370     -0.0878
     88  N         13.2740   38.3350    7.9950 N.3   374  GLU374     -0.1245
     89  CA        12.1280   37.5630    8.5160 C.3   374  GLU374      0.1567
     90  C         11.6230   38.1560    9.8330 C.2   374  GLU374      0.2260
     91  O         10.4680   37.9420   10.2310 O.2   374  GLU374     -0.2867
     92  CB        12.4910   36.1010    8.7660 C.3   374  GLU374      0.0388
     93  CG        11.2420   35.2300    8.9510 C.3   374  GLU374      0.1160
     94  CD        11.5420   33.7330    8.9970 C.2   374  GLU374      0.3649
     95  OE1       12.1340   33.2270   10.0240 O.co2 374  GLU374     -0.2457
     96  OE2       11.1990   32.9760    8.0100 O.co2 374  GLU374     -0.2457
     97  N          6.3570   35.3470   12.4710 N.3   527  GLN527     -0.1245
     98  CA         6.5480   35.1450   11.0330 C.3   527  GLN527      0.1566
     99  C          5.2660   34.6610   10.3670 C.2   527  GLN527      0.2260
    100  O          5.2360   33.6300    9.6960 O.2   527  GLN527     -0.2867
    101  CB         7.7510   34.2160   10.7060 C.3   527  GLN527      0.0367
    102  CG         7.8010   32.8350   11.3940 C.3   527  GLN527      0.0905
    103  CD         8.0400   32.9220   12.8840 C.2   527  GLN527      0.2608
    104  OE1        8.9340   33.6350   13.3310 O.2   527  GLN527     -0.2717
    105  NE2        7.1910   32.2630   13.6650 N.am  527  GLN527     -0.0878
    106  N          4.7850   33.6810    6.2630 N.3   530  VAL530     -0.1245
    107  CA         5.1230   32.4410    5.5720 C.3   530  VAL530      0.1561
    108  C          3.9420   31.4700    5.4770 C.2   530  VAL530      0.2260
    109  O          4.0080   30.4750    4.7540 O.2   530  VAL530     -0.2867
    110  CB         6.3590   31.7500    6.2260 C.3   530  VAL530      0.0252
    111  CG1        7.5340   32.7170    6.2590 C.3   530  VAL530      0.0019
    112  CG2        6.0490   31.2370    7.6400 C.3   530  VAL530      0.0019
    113  N          2.3140   28.4690    2.3610 N.3   534  LYS534     -0.1245
    114  CA         2.1740   27.0880    2.8500 C.3   534  LYS534      0.1561
    115  C          0.7750   26.5240    2.6290 C.2   534  LYS534      0.2260
    116  O          0.6340   25.3870    2.1870 O.2   534  LYS534     -0.2867
    117  CB         2.4970   26.9990    4.3430 C.3   534  LYS534      0.0271
    118  CG         3.9540   27.1480    4.7050 C.3   534  LYS534      0.0035
    119  CD         4.0990   27.1460    6.2200 C.3   534  LYS534      0.0206
    120  CE         5.5350   27.3490    6.6410 C.3   534  LYS534      0.1093
    121  NZ         5.6260   27.4390    8.1260 N.3   534  LYS534     -0.1314
@<TRIPOS>BOND
     1   116   115    2
     2   113   114    1
     3   115   114    1
     4   114   117    1
     5     8     6    1
     6   117   118    1
     7     6     5    1
     8   118   119    1
     9   109   108    2
    10   108   107    1
    11   107   110    1
    12   107   106    1
    13     5     7    1
    14     5     2    1
    15    57    58    1
    16   119   120    1
    17   110   111    1
    18   110   112    1
    19   120   121    1
    20    79    80    1
    21     2     3    1
    22     2     1    1
    23    58    59    1
    24    58    61    1
    25     9    10    1
    26     9     3   am
    27    60    59    2
    28    52    53    2
    29    52    51    1
    30    10    11    1
    31    56    54    1
    32     3     4    2
    33    80    83    1
    34    80    81    1
    35    62    61    1
    36    83    84    1
    37    88    89    1
    38    96    94   ar
    39    61    63    1
    40    89    92    1
    41    89    90    1
    42    51    54    1
    43    51    50    1
    44    86    85    2
    45    54    55    1
    46    92    93    1
    47    11    12    2
    48    11    13   am
    49    84    85    1
    50    81    82    2
    51    93    94    1
    52    94    95   ar
    53    85    87   am
    54   100    99    2
    55    90    91    2
    56    13    14    1
    57    99    98    1
    58    20    19    2
    59    19    18    1
    60   101    98    1
    61   101   102    1
    62    98    97    1
    63    17    18    1
    64    17    15   am
    65    14    15    1
    66   102   103    1
    67    18    21    1
    68    26    25    2
    69    21    22    1
    70    15    16    2
    71    33    32    1
    72    32    29    1
    73    23    24    1
    74    25    24    1
    75    25    28   am
    76   103   104    2
    77   103   105   am
    78    48    47    1
    79    27    24    1
    80    29    28    1
    81    29    30    1
    82    77    78    2
    83    77    76    1
    84    47    49    1
    85    47    44    1
    86    76    75    1
    87    30    34   am
    88    30    31    2
    89    34    35    1
    90    45    44    1
    91    45    46    2
    92    43    44    1
    93    43    36   am
    94    38    35    1
    95    38    39    1
    96    35    36    1
    97    36    37    2
    98    40    39    1
    99    40    41    1
   100    74    72   ar
   101    74    73   ar
   102    72    70   ar
   103    42    41    1
   104    73    71   ar
   105    70    69   ar
   106    71    69   ar
   107    69    68    1
   108    68    65    1
   109    65    64    1
   110    65    66    1
   111    67    66    2
