@<TRIPOS>MOLECULE
tmp/2o2fA00.pdb
 181 177 0 0 0
SMALL
GASTEIGER

@<TRIPOS>ATOM
      1  N          7.6120    6.8790   -7.5620 N.3    33  GLN33      -0.1231
      2  CA         8.5240    7.5300   -6.6280 C.3    33  GLN33       0.1698
      3  C          7.9560    7.5190   -5.2130 C.2    33  GLN33       0.2592
      4  O          8.6980    7.4030   -4.2370 O.2    33  GLN33      -0.2718
      5  CB         8.7990    8.9680   -7.0700 C.3    33  GLN33       0.0381
      6  CG        10.2680    9.3480   -7.0220 C.3    33  GLN33       0.0905
      7  CD        10.4780   10.8450   -6.9060 C.2    33  GLN33       0.2608
      8  OE1        9.5620   11.6320   -7.1510 O.2    33  GLN33      -0.2717
      9  NE2       11.6860   11.2470   -6.5340 N.am   33  GLN33      -0.0878
     10  N          6.6370    7.6380   -5.1090 N.am   34  ALA34      -0.1980
     11  CA         5.9700    7.6390   -3.8130 C.3    34  ALA34       0.1597
     12  C          5.8580    6.2230   -3.2570 C.2    34  ALA34       0.2287
     13  O          5.9030    6.0160   -2.0440 O.2    34  ALA34      -0.2864
     14  CB         4.5930    8.2730   -3.9280 C.3    34  ALA34       0.0319
     15  N          9.7280    4.6340   -2.3970 N.3    37  ASP37      -0.1225
     16  CA        10.2160    5.1720   -1.1320 C.3    37  ASP37       0.1805
     17  C          9.4650    4.5590    0.0460 C.2    37  ASP37       0.2597
     18  O         10.0310    4.3660    1.1220 O.2    37  ASP37      -0.2718
     19  CB        10.0690    6.6940   -1.1110 C.3    37  ASP37       0.1424
     20  CG        11.2010    7.3940   -1.8370 C.2    37  ASP37       0.3668
     21  OD1       11.2130    7.3650   -3.0850 O.co2  37  ASP37      -0.2456
     22  OD2       12.0760    7.9700   -1.1570 O.co2  37  ASP37      -0.2456
     23  N          8.1880    4.2570   -0.1650 N.am   38  PHE38      -0.1976
     24  CA         7.3590    3.6660    0.8790 C.3    38  PHE38       0.1639
     25  C          7.8370    2.2600    1.2250 C.2    38  PHE38       0.2290
     26  O          8.1620    1.9690    2.3760 O.2    38  PHE38      -0.2864
     27  CB         5.8980    3.6190    0.4310 C.3    38  PHE38       0.0560
     28  CG         5.0380    2.7370    1.2880 C.ar   38  PHE38      -0.0200
     29  CD1        4.6870    3.1240    2.5710 C.ar   38  PHE38      -0.0042
     30  CD2        4.5800    1.5200    0.8100 C.ar   38  PHE38      -0.0042
     31  CE1        3.8960    2.3140    3.3610 C.ar   38  PHE38      -0.0003
     32  CE2        3.7890    0.7050    1.5960 C.ar   38  PHE38      -0.0003
     33  CZ         3.4460    1.1030    2.8740 C.ar   38  PHE38      -0.0000
     34  N         11.0340    2.5340    3.1710 N.3    41  ARG41      -0.1231
     35  CA        10.8240    3.0960    4.5010 C.3    41  ARG41       0.1694
     36  C         10.0010    2.1500    5.3700 C.2    41  ARG41       0.2592
     37  O         10.4510    1.7130    6.4280 O.2    41  ARG41      -0.2718
     38  CB        10.1260    4.4510    4.3990 C.3    41  ARG41       0.0321
     39  CG        10.9260    5.5940    5.0040 C.3    41  ARG41       0.0489
     40  CD        10.6450    6.9080    4.2940 C.3    41  ARG41       0.2205
     41  NE        11.6300    7.9330    4.6330 N.pl3  41  ARG41      -0.0865
     42  CZ        11.5980    8.6550    5.7520 C.cat  41  ARG41       0.5346
     43  NH1       10.6360    8.4660    6.6490 N.pl3  41  ARG41       0.1354
     44  NH2       12.5330    9.5680    5.9770 N.pl3  41  ARG41       0.1354
     45  N          8.7930    1.8370    4.9140 N.am   42  TYR42      -0.1976
     46  CA         7.9080    0.9410    5.6500 C.3    42  TYR42       0.1639
     47  C          7.9600   -0.4670    5.0670 C.2    42  TYR42       0.2290
     48  O          6.9310   -1.0400    4.7100 O.2    42  TYR42      -0.2864
     49  CB         6.4720    1.4680    5.6170 C.3    42  TYR42       0.0560
     50  CG         6.2450    2.6680    6.5100 C.ar   42  TYR42      -0.0198
     51  CD1        6.5280    3.9520    6.0640 C.ar   42  TYR42      -0.0009
     52  CD2        5.7480    2.5150    7.7980 C.ar   42  TYR42      -0.0009
     53  CE1        6.3240    5.0510    6.8770 C.ar   42  TYR42       0.0417
     54  CE2        5.5390    3.6090    8.6170 C.ar   42  TYR42       0.0417
     55  CZ         5.8290    4.8740    8.1520 C.ar   42  TYR42       0.1957
     56  OH         5.6230    5.9650    8.9630 O.3    42  TYR42      -0.2866
     57  N          6.9630   -2.8720    8.3150 N.3    45  ASP45      -0.1225
     58  CA         5.5540   -2.6690    8.6260 C.3    45  ASP45       0.1805
     59  C          4.6690   -3.2420    7.5230 C.2    45  ASP45       0.2597
     60  O          3.5830   -3.7570    7.7890 O.2    45  ASP45      -0.2718
     61  CB         5.2600   -1.1780    8.8090 C.3    45  ASP45       0.1424
     62  CG         5.0340   -0.8070   10.2600 C.2    45  ASP45       0.3668
     63  OD1        4.2760   -1.5250   10.9470 O.co2  45  ASP45      -0.2456
     64  OD2        5.6140    0.2020   10.7130 O.co2  45  ASP45      -0.2456
     65  N          5.1430   -3.1490    6.2850 N.am   46  PHE46      -0.1976
     66  CA         4.3990   -3.6590    5.1400 C.3    46  PHE46       0.1639
     67  C          4.4620   -5.1820    5.0890 C.2    46  PHE46       0.2290
     68  O          3.4380   -5.8520    4.9590 O.2    46  PHE46      -0.2864
     69  CB         4.9520   -3.0700    3.8420 C.3    46  PHE46       0.0560
     70  CG         4.2780   -3.5980    2.6070 C.ar   46  PHE46      -0.0200
     71  CD1        3.0760   -3.0610    2.1740 C.ar   46  PHE46      -0.0042
     72  CD2        4.8460   -4.6320    1.8810 C.ar   46  PHE46      -0.0042
     73  CE1        2.4540   -3.5450    1.0390 C.ar   46  PHE46      -0.0003
     74  CE2        4.2280   -5.1220    0.7460 C.ar   46  PHE46      -0.0003
     75  CZ         3.0300   -4.5760    0.3240 C.ar   46  PHE46      -0.0000
     76  N          2.3280   -6.8900    7.6110 N.3    49  MET49      -0.1245
     77  CA         0.9130   -6.8730    7.2620 C.3    49  MET49       0.1570
     78  C          0.6170   -7.8770    6.1530 C.2    49  MET49       0.2261
     79  O         -0.4590   -8.4730    6.1110 O.2    49  MET49      -0.2867
     80  CB         0.4920   -5.4690    6.8220 C.3    49  MET49       0.0387
     81  CG        -0.5900   -4.8570    7.6970 C.3    49  MET49       0.0595
     82  SD        -2.1220   -5.8070    7.6720 S.3    49  MET49      -0.1393
     83  CE        -3.3350   -4.4970    7.8200 C.3    49  MET49       0.0692
     84  N         -7.2120   -6.4420    3.5020 N.3    67  VAL67      -0.1245
     85  CA        -6.1200   -5.4760    3.4750 C.3    67  VAL67       0.1561
     86  C         -6.6350   -4.0660    3.2050 C.2    67  VAL67       0.2260
     87  O         -6.0780   -3.0870    3.7010 O.2    67  VAL67      -0.2867
     88  CB        -5.0740   -5.8410    2.4070 C.3    67  VAL67       0.0252
     89  CG1       -5.3220   -5.0620    1.1240 C.3    67  VAL67       0.0019
     90  CG2       -3.6680   -5.5890    2.9280 C.3    67  VAL67       0.0019
     91  N         -6.5480   -0.9210    5.9840 N.3    71  LEU71      -0.1245
     92  CA        -5.8650    0.2710    5.4940 C.3    71  LEU71       0.1561
     93  C         -6.7320    1.5110    5.6840 C.2    71  LEU71       0.2260
     94  O         -6.3520    2.4440    6.3900 O.2    71  LEU71      -0.2867
     95  CB        -5.5040    0.1090    4.0150 C.3    71  LEU71       0.0270
     96  CG        -4.4740    1.1100    3.4870 C.3    71  LEU71       0.0019
     97  CD1       -3.1510    0.9500    4.2200 C.3    71  LEU71       0.0001
     98  CD2       -4.2790    0.9330    1.9890 C.3    71  LEU71       0.0001
     99  N         -6.1140    8.9860    3.1390 N.3    77  ASN77      -0.1225
    100  CA        -5.1320   10.0330    2.8770 C.3    77  ASN77       0.1785
    101  C         -4.1460    9.5880    1.8030 C.2    77  ASN77       0.2597
    102  O         -3.9350    8.3920    1.6050 O.2    77  ASN77      -0.2718
    103  CB        -4.3800   10.3870    4.1620 C.3    77  ASN77       0.1169
    104  CG        -4.0990   11.8720    4.2780 C.2    77  ASN77       0.2627
    105  OD1       -3.3270   12.4330    3.5000 O.2    77  ASN77      -0.2716
    106  ND2       -4.7260   12.5180    5.2550 N.am   77  ASN77      -0.0877
    107  N         -3.5480   10.5570    1.1110 N.am   78  TRP78      -0.1962
    108  CA        -2.5840   10.2570    0.0540 C.3    78  TRP78       0.1771
    109  C         -1.5780    9.2080    0.5180 C.2    78  TRP78       0.2620
    110  O         -1.0730    8.4220   -0.2840 O.2    78  TRP78      -0.2715
    111  CB        -1.8500   11.5260   -0.3940 C.3    78  TRP78       0.0590
    112  CG        -1.5880   12.4980    0.7160 C.ar   78  TRP78       0.0006
    113  CD1       -0.7050   12.3510    1.7460 C.ar   78  TRP78       0.0946
    114  CD2       -2.2170   13.7700    0.9050 C.ar   78  TRP78       0.0152
    115  NE1       -0.7460   13.4530    2.5640 N.ar   78  TRP78      -0.2442
    116  CE2       -1.6670   14.3390    2.0690 C.ar   78  TRP78       0.0810
    117  CE3       -3.1920   14.4840    0.2010 C.ar   78  TRP78       0.0012
    118  CZ2       -2.0610   15.5880    2.5440 C.ar   78  TRP78       0.0191
    119  CZ3       -3.5810   15.7230    0.6750 C.ar   78  TRP78       0.0001
    120  CH2       -3.0160   16.2650    1.8360 C.ar   78  TRP78       0.0015
    121  N         -1.2980    9.1950    1.8170 N.am   79  GLY79      -0.1940
    122  CA        -0.3630    8.2290    2.3610 C.3    79  GLY79       0.2014
    123  C         -0.8920    6.8130    2.2680 C.2    79  GLY79       0.2638
    124  O         -0.2580    5.9430    1.6710 O.2    79  GLY79      -0.2714
    125  N         -2.0620    6.5830    2.8550 N.am   80  ARG80      -0.1977
    126  CA        -2.6800    5.2640    2.8280 C.3    80  ARG80       0.1597
    127  C         -2.8610    4.7920    1.3910 C.2    80  ARG80       0.2287
    128  O         -2.6780    3.6130    1.0860 O.2    80  ARG80      -0.2864
    129  CB        -4.0330    5.2940    3.5440 C.3    80  ARG80       0.0334
    130  CG        -3.9450    4.9630    5.0240 C.3    80  ARG80       0.0492
    131  CD        -3.1680    6.0220    5.7880 C.3    80  ARG80       0.2205
    132  NE        -3.7560    6.2970    7.0960 N.pl3  80  ARG80      -0.0865
    133  CZ        -3.5900    5.5170    8.1650 C.cat  80  ARG80       0.5346
    134  NH1       -2.8550    4.4140    8.0860 N.pl3  80  ARG80       0.1354
    135  NH2       -4.1620    5.8430    9.3160 N.pl3  80  ARG80       0.1354
    136  N         -1.0100    5.4900   -1.1840 N.3    82  VAL82      -0.1231
    137  CA         0.2820    5.0580   -1.6980 C.3    82  VAL82       0.1692
    138  C          0.5830    3.6250   -1.2680 C.2    82  VAL82       0.2591
    139  O          1.2920    2.8950   -1.9610 O.2    82  VAL82      -0.2718
    140  CB         1.4220    5.9850   -1.2240 C.3    82  VAL82       0.0266
    141  CG1        2.6070    5.1780   -0.7230 C.3    82  VAL82       0.0020
    142  CG2        1.8480    6.9180   -2.3450 C.3    82  VAL82       0.0020
    143  N          0.0370    3.2260   -0.1210 N.am   83  ALA83      -0.1980
    144  CA         0.2430    1.8780    0.3950 C.3    83  ALA83       0.1597
    145  C         -0.7220    0.8920   -0.2530 C.2    83  ALA83       0.2287
    146  O         -0.3680   -0.2590   -0.5100 O.2    83  ALA83      -0.2864
    147  CB         0.0820    1.8610    1.9080 C.3    83  ALA83       0.0319
    148  N          0.3260   -2.7970   -1.9900 N.3    87  PHE87      -0.1241
    149  CA        -0.1760   -4.1320   -1.6910 C.3    87  PHE87       0.1605
    150  C         -0.7090   -4.8010   -2.9540 C.2    87  PHE87       0.2264
    151  O         -0.4020   -5.9590   -3.2330 O.2    87  PHE87      -0.2867
    152  CB        -1.2790   -4.0620   -0.6330 C.3    87  PHE87       0.0534
    153  CG        -1.3490   -5.2790    0.2440 C.ar   87  PHE87      -0.0203
    154  CD1       -0.6130   -5.3470    1.4170 C.ar   87  PHE87      -0.0042
    155  CD2       -2.1500   -6.3550   -0.1030 C.ar   87  PHE87      -0.0042
    156  CE1       -0.6750   -6.4650    2.2260 C.ar   87  PHE87      -0.0003
    157  CE2       -2.2170   -7.4760    0.7030 C.ar   87  PHE87      -0.0003
    158  CZ        -1.4790   -7.5310    1.8690 C.ar   87  PHE87      -0.0000
    159  N         -2.5380   15.3390   -5.9210 N.3   132  PHE132     -0.1241
    160  CA        -1.6160   14.2390   -5.6610 C.3   132  PHE132      0.1605
    161  C         -0.2610   14.4920   -6.3170 C.2   132  PHE132      0.2264
    162  O          0.7850   14.2710   -5.7060 O.2   132  PHE132     -0.2867
    163  CB        -2.2030   12.9210   -6.1720 C.3   132  PHE132      0.0534
    164  CG        -2.0080   11.7690   -5.2250 C.ar  132  PHE132     -0.0203
    165  CD1       -0.9180   11.7370   -4.3700 C.ar  132  PHE132     -0.0042
    166  CD2       -2.9130   10.7220   -5.1920 C.ar  132  PHE132     -0.0042
    167  CE1       -0.7360   10.6800   -3.4980 C.ar  132  PHE132     -0.0003
    168  CE2       -2.7360    9.6610   -4.3230 C.ar  132  PHE132     -0.0003
    169  CZ        -1.6460    9.6420   -3.4750 C.ar  132  PHE132     -0.0000
    170  N          3.5460   15.4400   -4.2690 N.3   136  TYR136     -0.1241
    171  CA         4.6970   14.5860   -4.5410 C.3   136  TYR136      0.1605
    172  C          4.8110   14.2880   -6.0320 C.2   136  TYR136      0.2264
    173  O          4.6240   13.1510   -6.4640 O.2   136  TYR136     -0.2867
    174  CB         4.5870   13.2780   -3.7550 C.3   136  TYR136      0.0534
    175  CG         4.2200   13.4710   -2.3010 C.ar  136  TYR136     -0.0201
    176  CD1        5.1150   14.0490   -1.4110 C.ar  136  TYR136     -0.0009
    177  CD2        2.9780   13.0750   -1.8210 C.ar  136  TYR136     -0.0009
    178  CE1        4.7830   14.2280   -0.0810 C.ar  136  TYR136      0.0417
    179  CE2        2.6390   13.2500   -0.4920 C.ar  136  TYR136      0.0417
    180  CZ         3.5450   13.8270    0.3730 C.ar  136  TYR136      0.1957
    181  OH         3.2110   14.0040    1.6960 O.3   136  TYR136     -0.2866
@<TRIPOS>BOND
     1     1     2    1
     2     8     7    2
     3     5     6    1
     4     5     2    1
     5     6     7    1
     6     7     9   am
     7     2     3    1
     8   173   172    2
     9   161   162    2
    10   161   160    1
    11   163   160    1
    12   163   164    1
    13   172   171    1
    14   159   160    1
    15   164   166   ar
    16   164   165   ar
    17     3    10   am
    18     3     4    2
    19   166   168   ar
    20    10    11    1
    21   171   170    1
    22   171   174    1
    23   165   167   ar
    24   168   169   ar
    25    14    11    1
    26    11    12    1
    27   174   175    1
    28   167   169   ar
    29    12    13    2
    30   151   150    2
    31    21    20   ar
    32   150   149    1
    33    15    16    1
    34   142   140    1
    35   175   177   ar
    36   175   176   ar
    37   148   149    1
    38   139   138    2
    39    20    22   ar
    40    20    19    1
    41   177   179   ar
    42   137   138    1
    43   137   140    1
    44   137   136    1
    45   149   152    1
    46   176   178   ar
    47   138   143   am
    48   140   141    1
    49    16    19    1
    50    16    17    1
    51   152   153    1
    52   146   145    2
    53   179   180   ar
    54   111   108    1
    55   111   112    1
    56   110   109    2
    57   145   144    1
    58    23    17   am
    59    23    24    1
    60   143   144    1
    61   155   153   ar
    62   155   157   ar
    63   178   180   ar
    64    17    18    2
    65   108   109    1
    66   108   107    1
    67   117   119   ar
    68   117   114   ar
    69   153   154   ar
    70    75    74   ar
    71    75    73   ar
    72   180   181    1
    73   144   147    1
    74    27    24    1
    75    27    28    1
    76   109   121   am
    77   119   120   ar
    78   157   158   ar
    79   112   114   ar
    80   112   113   ar
    81    74    72   ar
    82    30    28   ar
    83    30    32   ar
    84    24    25    1
    85   114   116   ar
    86    73    71   ar
    87   128   127    2
    88   107   101   am
    89    89    88    1
    90    25    26    2
    91    28    29   ar
    92   127   126    1
    93   154   156   ar
    94    32    33   ar
    95   102   101    2
    96   124   123    2
    97   113   115   ar
    98   101   100    1
    99   121   122    1
   100   120   118   ar
   101   158   156   ar
   102    72    70   ar
   103    98    96    1
   104   116   118   ar
   105   116   115   ar
   106    71    70   ar
   107   123   122    1
   108   123   125   am
   109    88    90    1
   110    88    85    1
   111    29    31   ar
   112    70    69    1
   113   126   125    1
   114   126   129    1
   115    33    31   ar
   116   100    99    1
   117   100   103    1
   118    34    35    1
   119    86    85    1
   120    86    87    2
   121    85    84    1
   122    96    95    1
   123    96    97    1
   124   105   104    2
   125   129   130    1
   126    69    66    1
   127    95    92    1
   128   103   104    1
   129   104   106   am
   130    40    41    1
   131    40    39    1
   132    38    35    1
   133    38    39    1
   134    35    36    1
   135    41    42    2
   136    48    47    2
   137    45    36   am
   138    45    46    1
   139    68    67    2
   140   130   131    1
   141    47    46    1
   142    67    66    1
   143    66    65    1
   144    36    37    2
   145    92    93    1
   146    92    91    1
   147    49    46    1
   148    49    50    1
   149    93    94    2
   150    42    44    1
   151    42    43    1
   152   131   132    1
   153    51    50   ar
   154    51    53   ar
   155    79    78    2
   156    78    77    1
   157    65    59   am
   158    50    52   ar
   159    80    77    1
   160    80    81    1
   161    53    55   ar
   162   132   133    2
   163    77    76    1
   164    59    60    2
   165    59    58    1
   166    82    81    1
   167    82    83    1
   168    52    54   ar
   169   134   133    1
   170    55    54   ar
   171    55    56    1
   172   133   135    1
   173    57    58    1
   174    58    61    1
   175    61    62    1
   176    62    64   ar
   177    62    63   ar
