@<TRIPOS>MOLECULE
tmp/2o2lD00.pdb
 103 102 0 0 0
SMALL
GASTEIGER

@<TRIPOS>ATOM
      1  N         21.9350  -41.5280   26.9950 N.3    16  GLN16      -0.1245
      2  CA        22.3500  -40.1410   26.9400 C.3    16  GLN16       0.1566
      3  C         21.4970  -39.3690   25.9660 C.2    16  GLN16       0.2260
      4  O         20.8000  -39.9460   25.1300 O.2    16  GLN16      -0.2867
      5  CB        23.8260  -40.0120   26.5850 C.3    16  GLN16       0.0367
      6  CG        24.1760  -40.2290   25.1350 C.3    16  GLN16       0.0905
      7  CD        25.6490  -40.5390   24.9590 C.2    16  GLN16       0.2608
      8  OE1       26.1220  -41.5880   25.4050 O.2    16  GLN16      -0.2717
      9  NE2       26.3830  -39.6350   24.3180 N.am   16  GLN16      -0.0878
     10  N         21.4100  -36.7480   22.9380 N.3    18  TYR18      -0.1241
     11  CA        22.0660  -36.0210   21.8620 C.3    18  TYR18       0.1605
     12  C         21.1850  -34.8810   21.4210 C.2    18  TYR18       0.2264
     13  O         19.9870  -35.0560   21.1850 O.2    18  TYR18      -0.2867
     14  CB        22.3050  -36.9180   20.6570 C.3    18  TYR18       0.0534
     15  CG        23.5310  -37.7760   20.7750 C.ar   18  TYR18      -0.0201
     16  CD1       23.4620  -39.0440   21.3380 C.ar   18  TYR18      -0.0009
     17  CD2       24.7650  -37.3210   20.3210 C.ar   18  TYR18      -0.0009
     18  CE1       24.5940  -39.8460   21.4370 C.ar   18  TYR18       0.0417
     19  CE2       25.9110  -38.1220   20.4140 C.ar   18  TYR18       0.0417
     20  CZ        25.8220  -39.3770   20.9720 C.ar   18  TYR18       0.1957
     21  OH        26.9460  -40.1700   21.0760 O.3    18  TYR18      -0.2866
     22  N         20.2240  -41.0760   10.1000 N.3    41  THR41      -0.1203
     23  CA        21.5140  -40.4720    9.9590 C.3    41  THR41       0.1994
     24  C         21.3420  -38.9670    9.9780 C.2    41  THR41       0.2617
     25  O         20.2790  -38.4660    9.6280 O.2    41  THR41      -0.2717
     26  CB        22.0880  -40.9850    8.6500 C.3    41  THR41       0.1784
     27  OG1       23.0210  -42.0480    8.9300 O.3    41  THR41      -0.2211
     28  CG2       22.7000  -39.8930    7.8380 C.3    41  THR41       0.0376
     29  N         22.3680  -38.2490   10.4270 N.am   42  PHE42      -0.1975
     30  CA        22.3580  -36.7820   10.3930 C.3    42  PHE42       0.1639
     31  C         23.6080  -36.2340    9.7260 C.2    42  PHE42       0.2290
     32  O         24.5920  -36.9560    9.5550 O.2    42  PHE42      -0.2864
     33  CB        22.2090  -36.2290   11.8030 C.3    42  PHE42       0.0560
     34  CG        20.8960  -36.5810   12.4320 C.ar   42  PHE42      -0.0200
     35  CD1       19.7680  -35.8440   12.1450 C.ar   42  PHE42      -0.0042
     36  CD2       20.7740  -37.6860   13.2700 C.ar   42  PHE42      -0.0042
     37  CE1       18.5550  -36.1770   12.6940 C.ar   42  PHE42      -0.0003
     38  CE2       19.5540  -38.0080   13.8190 C.ar   42  PHE42      -0.0003
     39  CZ        18.4490  -37.2510   13.5270 C.ar   42  PHE42      -0.0000
     40  N         25.5820  -34.2050   11.0040 N.3    44  SER44      -0.1202
     41  CA        26.6330  -34.2370   12.0290 C.3    44  SER44       0.2020
     42  C         27.5550  -35.4570   11.9030 C.2    44  SER44       0.2619
     43  O         28.6990  -35.4310   12.3710 O.2    44  SER44      -0.2717
     44  CB        26.0070  -34.2080   13.4350 C.3    44  SER44       0.2103
     45  OG        25.2840  -35.4010   13.7090 O.3    44  SER44      -0.2182
     46  N         27.0380  -36.5130   11.2640 N.am   45  GLY45      -0.1942
     47  CA        27.6910  -37.8150   11.1960 C.3    45  GLY45       0.2014
     48  C         27.0660  -38.8270   12.1600 C.2    45  GLY45       0.2639
     49  O         27.4750  -39.9920   12.1900 O.2    45  GLY45      -0.2714
     50  N         26.0850  -38.3990   12.9540 N.am   46  ALA46      -0.1963
     51  CA        25.4610  -39.3100   13.9250 C.3    46  ALA46       0.1728
     52  C         24.6050  -40.3410   13.2030 C.2    46  ALA46       0.2617
     53  O         23.9880  -40.0530   12.1810 O.2    46  ALA46      -0.2715
     54  CB        24.6240  -38.5510   14.9310 C.3    46  ALA46       0.0334
     55  N         24.6130  -41.5550   13.7430 N.am   47  THR47      -0.1937
     56  CA        23.8290  -42.6520   13.2030 C.3    47  THR47       0.2028
     57  C         23.0960  -43.3200   14.3340 C.2    47  THR47       0.2642
     58  O         23.6820  -43.5970   15.3880 O.2    47  THR47      -0.2714
     59  CB        24.7010  -43.6790   12.4950 C.3    47  THR47       0.1808
     60  OG1       25.4870  -43.0120   11.5030 O.3    47  THR47      -0.2208
     61  CG2       23.8420  -44.7160   11.8230 C.3    47  THR47       0.0379
     62  N         21.8130  -43.5750   14.1130 N.am   48  PHE48      -0.1973
     63  CA        20.9650  -44.1390   15.1460 C.3    48  PHE48       0.1639
     64  C         20.1130  -45.2160   14.5520 C.2    48  PHE48       0.2290
     65  O         19.8360  -45.1940   13.3600 O.2    48  PHE48      -0.2864
     66  CB        20.0900  -43.0690   15.7730 C.3    48  PHE48       0.0560
     67  CG        20.8710  -41.9920   16.4740 C.ar   48  PHE48      -0.0200
     68  CD1       21.5690  -42.2710   17.6380 C.ar   48  PHE48      -0.0042
     69  CD2       20.9140  -40.7080   15.9720 C.ar   48  PHE48      -0.0042
     70  CE1       22.2940  -41.2800   18.2870 C.ar   48  PHE48      -0.0003
     71  CE2       21.6280  -39.7170   16.6080 C.ar   48  PHE48      -0.0003
     72  CZ        22.3210  -40.0040   17.7640 C.ar   48  PHE48      -0.0000
     73  N         24.8060  -49.8000   22.4500 N.3    88  LYS88      -0.1231
     74  CA        24.5400  -50.4220   21.1730 C.3    88  LYS88       0.1693
     75  C         25.2550  -49.6160   20.0870 C.2    88  LYS88       0.2593
     76  O         25.4990  -48.4030   20.2560 O.2    88  LYS88      -0.2718
     77  CB        23.0450  -50.4490   20.8430 C.3    88  LYS88       0.0285
     78  CG        22.0950  -50.6600   21.9910 C.3    88  LYS88       0.0035
     79  CD        21.6620  -52.0910   22.1540 C.3    88  LYS88       0.0206
     80  CE        20.6260  -52.2080   23.2510 C.3    88  LYS88       0.1093
     81  NZ        20.1100  -53.6030   23.3160 N.3    88  LYS88      -0.1314
     82  N         25.5710  -50.3220   18.9920 N.am   89  THR89      -0.1940
     83  CA        26.1390  -49.7650   17.7720 C.3    89  THR89       0.2013
     84  C         25.2350  -50.1530   16.6120 C.2    89  THR89       0.2484
     85  O         25.0710  -51.3430   16.3210 O.2    89  THR89      -0.2729
     86  CB        27.5220  -50.3520   17.4020 C.3    89  THR89       0.1807
     87  OG1       28.3360  -50.4880   18.5700 O.3    89  THR89      -0.2208
     88  CG2       28.2210  -49.4350   16.3650 C.3    89  THR89       0.0379
     89  N         24.6190  -49.1640   15.9570 N.am   90  PRO90      -0.2715
     90  CA        24.6480  -47.7600   16.3570 C.3    90  PRO90       0.1536
     91  C         23.7780  -47.5470   17.6040 C.2    90  PRO90       0.2598
     92  O         23.0590  -48.4650   18.0240 O.2    90  PRO90      -0.2715
     93  CB        24.0870  -47.0260   15.1430 C.3    90  PRO90       0.0310
     94  CG        23.3670  -48.0690   14.3280 C.3    90  PRO90       0.0237
     95  CD        23.7930  -49.4190   14.7660 C.3    90  PRO90       0.0939
     96  N         23.8570  -46.3660   18.1960 N.am   91  ASN91      -0.1973
     97  CA        23.0540  -46.0640   19.3660 C.3    91  ASN91       0.1688
     98  C         21.5520  -46.2350   19.0840 C.2    91  ASN91       0.2292
     99  O         21.0650  -45.8950   18.0000 O.2    91  ASN91      -0.2864
    100  CB        23.3500  -44.6460   19.8640 C.3    91  ASN91       0.1181
    101  CG        24.6870  -44.5310   20.5980 C.2    91  ASN91       0.2629
    102  OD1       25.4570  -45.4930   20.7090 O.2    91  ASN91      -0.2716
    103  ND2       24.9510  -43.3470   21.1190 N.am   91  ASN91      -0.0877
@<TRIPOS>BOND
     1    28    26    1
     2    26    27    1
     3    26    23    1
     4    32    31    2
     5    25    24    2
     6    31    30    1
     7    23    24    1
     8    23    22    1
     9    24    29   am
    10    30    29    1
    11    30    33    1
    12    40    41    1
    13    47    46    1
    14    47    48    1
    15    46    42   am
    16    60    59    1
    17    33    34    1
    18    61    59    1
    19    42    41    1
    20    42    43    2
    21    41    44    1
    22    35    34   ar
    23    35    37   ar
    24    48    49    2
    25    48    50   am
    26    53    52    2
    27    34    36   ar
    28    59    56    1
    29    37    39   ar
    30    50    51    1
    31    56    55    1
    32    56    57    1
    33    52    55   am
    34    52    51    1
    35    36    38   ar
    36    65    64    2
    37    44    45    1
    38    39    38   ar
    39    51    54    1
    40    62    57   am
    41    62    63    1
    42    94    95    1
    43    94    93    1
    44    57    58    2
    45    64    63    1
    46    95    89    1
    47    93    90    1
    48    63    66    1
    49    66    67    1
    50    89    90    1
    51    89    84   am
    52    69    67   ar
    53    69    71   ar
    54    85    84    2
    55    90    91    1
    56    88    86    1
    57    67    68   ar
    58    71    72   ar
    59    84    83    1
    60    86    83    1
    61    86    87    1
    62    91    92    2
    63    91    96   am
    64    68    70   ar
    65    72    70   ar
    66    83    82    1
    67    99    98    2
    68    96    97    1
    69    82    75   am
    70    98    97    1
    71    97   100    1
    72   100   101    1
    73    75    76    2
    74    75    74    1
    75    17    19   ar
    76    17    15   ar
    77    19    20   ar
    78   101   102    2
    79   101   103   am
    80    14    15    1
    81    14    11    1
    82    15    16   ar
    83    77    74    1
    84    77    78    1
    85    20    21    1
    86    20    18   ar
    87    74    73    1
    88    13    12    2
    89    16    18   ar
    90    12    11    1
    91    11    10    1
    92    78    79    1
    93    79    80    1
    94    80    81    1
    95     9     7   am
    96     7     6    1
    97     7     8    2
    98     4     3    2
    99     6     5    1
   100     3     2    1
   101     5     2    1
   102     2     1    1
