@<TRIPOS>MOLECULE
tmp/2o2mA00.pdb
 184 179 0 0 0
SMALL
GASTEIGER

@<TRIPOS>ATOM
      1  N          5.2050    6.9430   -6.6240 N.3    42  ALA42      -0.1245
      2  CA         4.8760    6.9600   -5.2030 C.3    42  ALA42       0.1562
      3  C          5.0270    5.5730   -4.5870 C.2    42  ALA42       0.2260
      4  O          5.7460    5.3940   -3.6040 O.2    42  ALA42      -0.2867
      5  CB         3.4620    7.4800   -4.9950 C.3    42  ALA42       0.0290
      6  N          8.7130    4.6400   -4.2360 N.3    45  GLU45      -0.1231
      7  CA         9.4350    5.3210   -3.1690 C.3    45  GLU45       0.1699
      8  C          8.8820    4.9340   -1.8030 C.2    45  GLU45       0.2592
      9  O          9.6320    4.7630   -0.8430 O.2    45  GLU45      -0.2718
     10  CB         9.3410    6.8370   -3.3520 C.3    45  GLU45       0.0402
     11  CG        10.4130    7.4100   -4.2630 C.3    45  GLU45       0.1161
     12  CD        10.7690    8.8420   -3.9140 C.2    45  GLU45       0.3649
     13  OE1       10.5020    9.2560   -2.7660 O.co2  45  GLU45      -0.2457
     14  OE2       11.3150    9.5480   -4.7860 O.co2  45  GLU45      -0.2457
     15  N          7.5640    4.8040   -1.7240 N.am   46  PHE46      -0.1976
     16  CA         6.9050    4.4450   -0.4750 C.3    46  PHE46       0.1639
     17  C          7.4850    3.1540    0.0950 C.2    46  PHE46       0.2290
     18  O          7.9640    3.1220    1.2280 O.2    46  PHE46      -0.2864
     19  CB         5.4000    4.2850   -0.7030 C.3    46  PHE46       0.0560
     20  CG         4.5460    4.4600    0.5280 C.ar   46  PHE46      -0.0200
     21  CD1        5.0930    4.8320    1.7530 C.ar   46  PHE46      -0.0042
     22  CD2        3.1780    4.2510    0.4530 C.ar   46  PHE46      -0.0042
     23  CE1        4.2910    4.9900    2.8650 C.ar   46  PHE46      -0.0003
     24  CE2        2.3740    4.4070    1.5640 C.ar   46  PHE46      -0.0003
     25  CZ         2.9300    4.7760    2.7710 C.ar   46  PHE46      -0.0000
     26  N         11.0120    3.3210    1.4310 N.3    49  ARG49      -0.1231
     27  CA        11.1460    3.8900    2.7670 C.3    49  ARG49       0.1694
     28  C         10.6810    2.9000    3.8290 C.2    49  ARG49       0.2592
     29  O         11.4160    2.5880    4.7660 O.2    49  ARG49      -0.2718
     30  CB        10.3430    5.1870    2.8740 C.3    49  ARG49       0.0321
     31  CG        10.9900    6.2310    3.7700 C.3    49  ARG49       0.0489
     32  CD        10.6170    7.6410    3.3420 C.3    49  ARG49       0.2205
     33  NE        11.1550    8.6500    4.2520 N.pl3  49  ARG49      -0.0865
     34  CZ        10.9120    9.9540    4.1430 C.cat  49  ARG49       0.5346
     35  NH1       10.1360   10.4170    3.1700 N.pl3  49  ARG49       0.1354
     36  NH2       11.4460   10.8010    5.0140 N.pl3  49  ARG49       0.1354
     37  N          9.4550    2.4100    3.6790 N.am   50  TYR50      -0.1976
     38  CA         8.8920    1.4570    4.6280 C.3    50  TYR50       0.1639
     39  C          9.0430    0.0270    4.1220 C.2    50  TYR50       0.2290
     40  O          8.0690   -0.7200    4.0370 O.2    50  TYR50      -0.2864
     41  CB         7.4180    1.7690    4.8810 C.3    50  TYR50       0.0560
     42  CG         7.2020    2.9880    5.7490 C.ar   50  TYR50      -0.0198
     43  CD1        7.1290    4.2570    5.1880 C.ar   50  TYR50      -0.0009
     44  CD2        7.0750    2.8710    7.1280 C.ar   50  TYR50      -0.0009
     45  CE1        6.9350    5.3750    5.9760 C.ar   50  TYR50       0.0417
     46  CE2        6.8810    3.9850    7.9220 C.ar   50  TYR50       0.0417
     47  CZ         6.8110    5.2340    7.3430 C.ar   50  TYR50       0.1957
     48  OH         6.6170    6.3460    8.1310 O.3    50  TYR50      -0.2866
     49  N          8.0090   -2.2430    7.3420 N.3    53  ALA53      -0.1231
     50  CA         6.5820   -2.2170    7.6450 C.3    53  ALA53       0.1694
     51  C          5.7840   -3.0050    6.6130 C.2    53  ALA53       0.2592
     52  O          5.1790   -4.0290    6.9310 O.2    53  ALA53      -0.2718
     53  CB         6.0800   -0.7830    7.7100 C.3    53  ALA53       0.0304
     54  N          5.7860   -2.5170    5.3780 N.am   54  PHE54      -0.1976
     55  CA         5.0610   -3.1670    4.2940 C.3    54  PHE54       0.1639
     56  C          5.3400   -4.6660    4.2690 C.2    54  PHE54       0.2290
     57  O          4.4200   -5.4740    4.1410 O.2    54  PHE54      -0.2864
     58  CB         5.4450   -2.5480    2.9520 C.3    54  PHE54       0.0560
     59  CG         5.0050   -1.1180    2.7810 C.ar   54  PHE54      -0.0200
     60  CD1        4.3880   -0.4200    3.8150 C.ar   54  PHE54      -0.0042
     61  CD2        5.2150   -0.4690    1.5750 C.ar   54  PHE54      -0.0042
     62  CE1        3.9950    0.8930    3.6400 C.ar   54  PHE54      -0.0003
     63  CE2        4.8210    0.8420    1.3980 C.ar   54  PHE54      -0.0003
     64  CZ         4.2110    1.5230    2.4310 C.ar   54  PHE54      -0.0000
     65  N          2.9580   -6.2650    6.1610 N.3    57  LEU57      -0.1245
     66  CA         1.6110   -6.1880    5.6100 C.3    57  LEU57       0.1561
     67  C          1.3400   -7.3680    4.6830 C.2    57  LEU57       0.2260
     68  O          0.4100   -8.1430    4.9040 O.2    57  LEU57      -0.2867
     69  CB         1.4240   -4.8710    4.8530 C.3    57  LEU57       0.0270
     70  CG        -0.0150   -4.3530    4.7950 C.3    57  LEU57       0.0019
     71  CD1       -0.0950   -3.1090    3.9230 C.3    57  LEU57       0.0001
     72  CD2       -0.9510   -5.4330    4.2730 C.3    57  LEU57       0.0001
     73  N          0.5620  -10.4180    6.1790 N.3    60  GLN60      -0.1245
     74  CA        -0.6810  -10.4980    6.9380 C.3    60  GLN60       0.1566
     75  C         -1.8550  -10.8630    6.0340 C.2    60  GLN60       0.2260
     76  O         -2.9980  -10.5000    6.3110 O.2    60  GLN60      -0.2867
     77  CB        -0.9600   -9.1660    7.6370 C.3    60  GLN60       0.0367
     78  CG        -0.4020   -9.0900    9.0480 C.3    60  GLN60       0.0905
     79  CD        -0.9090   -7.8790    9.8070 C.2    60  GLN60       0.2608
     80  OE1       -2.0010   -7.3780    9.5390 O.2    60  GLN60      -0.2717
     81  NE2       -0.1160   -7.4010   10.7590 N.am   60  GLN60      -0.0878
     82  N         -8.0750   -6.7580    6.2100 N.3    75  VAL75      -0.1245
     83  CA        -6.6630   -6.4110    6.3400 C.3    75  VAL75       0.1561
     84  C         -6.3640   -5.0170    5.7830 C.2    75  VAL75       0.2260
     85  O         -5.3200   -4.4340    6.0790 O.2    75  VAL75      -0.2867
     86  CB        -5.7680   -7.4430    5.6260 C.3    75  VAL75       0.0252
     87  CG1       -4.3440   -6.9240    5.4930 C.3    75  VAL75       0.0019
     88  CG2       -5.7900   -8.7690    6.3700 C.3    75  VAL75       0.0019
     89  N         -7.3650   -2.0140    8.6990 N.3    78  GLU78      -0.1231
     90  CA        -6.4020   -1.7600    9.7660 C.3    78  GLU78       0.1699
     91  C         -5.5310   -0.5480    9.4470 C.2    78  GLU78       0.2592
     92  O         -5.2190    0.2490   10.3320 O.2    78  GLU78      -0.2718
     93  CB        -5.5250   -2.9900   10.0010 C.3    78  GLU78       0.0402
     94  CG        -4.9840   -3.6090    8.7240 C.3    78  GLU78       0.1161
     95  CD        -3.8340   -4.5630    8.9800 C.2    78  GLU78       0.3649
     96  OE1       -2.7780   -4.1030    9.4650 O.co2  78  GLU78      -0.2457
     97  OE2       -3.9890   -5.7690    8.6970 O.co2  78  GLU78      -0.2457
     98  N         -5.1410   -0.4080    8.1830 N.am   79  LEU79      -0.1980
     99  CA        -4.3090    0.7170    7.7660 C.3    79  LEU79       0.1596
    100  C         -5.1100    2.0140    7.7810 C.2    79  LEU79       0.2287
    101  O         -4.6040    3.0630    8.1800 O.2    79  LEU79      -0.2864
    102  CB        -3.7320    0.4740    6.3670 C.3    79  LEU79       0.0297
    103  CG        -2.2790    0.9180    6.1760 C.3    79  LEU79       0.0022
    104  CD1       -1.9880    1.1870    4.7080 C.3    79  LEU79       0.0001
    105  CD2       -1.9810    2.1560    7.0090 C.3    79  LEU79       0.0001
    106  N         -5.6020    8.8810    4.3000 N.3    85  ASN85      -0.1225
    107  CA        -4.6150    9.8740    3.8920 C.3    85  ASN85       0.1785
    108  C         -3.9130    9.4480    2.6040 C.2    85  ASN85       0.2597
    109  O         -3.7560    8.2570    2.3390 O.2    85  ASN85      -0.2718
    110  CB        -3.5870   10.0860    5.0040 C.3    85  ASN85       0.1169
    111  CG        -2.8120   11.3780    4.8380 C.2    85  ASN85       0.2627
    112  OD1       -3.2530   12.2940    4.1440 O.2    85  ASN85      -0.2716
    113  ND2       -1.6500   11.4570    5.4730 N.am   85  ASN85      -0.0877
    114  N         -3.5000   10.4320    1.8100 N.am   86  TRP86      -0.1962
    115  CA        -2.8200   10.1720    0.5410 C.3    86  TRP86       0.1771
    116  C         -1.7530    9.0910    0.6860 C.2    86  TRP86       0.2620
    117  O         -1.6810    8.1690   -0.1250 O.2    86  TRP86      -0.2715
    118  CB        -2.1770   11.4560    0.0120 C.3    86  TRP86       0.0590
    119  CG        -3.1690   12.5340   -0.2960 C.ar   86  TRP86       0.0006
    120  CD1       -3.1610   13.8140    0.1780 C.ar   86  TRP86       0.0946
    121  CD2       -4.3150   12.4270   -1.1480 C.ar   86  TRP86       0.0152
    122  NE1       -4.2330   14.5100   -0.3270 N.ar   86  TRP86      -0.2442
    123  CE2       -4.9550   13.6800   -1.1430 C.ar   86  TRP86       0.0810
    124  CE3       -4.8600   11.3940   -1.9140 C.ar   86  TRP86       0.0012
    125  CZ2       -6.1140   13.9260   -1.8740 C.ar   86  TRP86       0.0191
    126  CZ3       -6.0100   11.6390   -2.6400 C.ar   86  TRP86       0.0001
    127  CH2       -6.6260   12.8960   -2.6160 C.ar   86  TRP86       0.0015
    128  N         -0.9230    9.2170    1.7120 N.am   87  GLY87      -0.1940
    129  CA         0.1340    8.2480    1.9310 C.3    87  GLY87       0.2014
    130  C         -0.3920    6.8540    2.1890 C.2    87  GLY87       0.2638
    131  O         -0.1510    5.9400    1.4000 O.2    87  GLY87      -0.2714
    132  N         -1.1090    6.6860    3.2990 N.am   88  ARG88      -0.1977
    133  CA        -1.6660    5.3870    3.6550 C.3    88  ARG88       0.1597
    134  C         -2.3600    4.7550    2.4550 C.2    88  ARG88       0.2287
    135  O         -2.3720    3.5330    2.3050 O.2    88  ARG88      -0.2864
    136  CB        -2.6490    5.5240    4.8180 C.3    88  ARG88       0.0334
    137  CG        -1.9840    5.5200    6.1840 C.3    88  ARG88       0.0492
    138  CD        -1.8860    6.9220    6.7630 C.3    88  ARG88       0.2205
    139  NE        -2.6110    7.0420    8.0260 N.pl3  88  ARG88      -0.0865
    140  CZ        -2.1390    6.6200    9.1980 C.cat  88  ARG88       0.5346
    141  NH1       -0.9330    6.0710    9.2810 N.pl3  88  ARG88       0.1354
    142  NH2       -2.8750    6.7520   10.2940 N.pl3  88  ARG88       0.1354
    143  N         -1.5040    5.2770   -0.8050 N.3    90  VAL90      -0.1245
    144  CA        -0.4480    4.8370   -1.7060 C.3    90  VAL90       0.1561
    145  C         -0.0160    3.4120   -1.3730 C.2    90  VAL90       0.2260
    146  O          0.4120    2.6620   -2.2510 O.2    90  VAL90      -0.2867
    147  CB         0.7750    5.7710   -1.6300 C.3    90  VAL90       0.0252
    148  CG1        1.8660    5.3100   -2.5820 C.3    90  VAL90       0.0019
    149  CG2        0.3720    7.2070   -1.9310 C.3    90  VAL90       0.0019
    150  N         -3.5310   14.7750   -5.4950 N.3   140  PHE140     -0.1241
    151  CA        -2.4840   13.7990   -5.2160 C.3   140  PHE140      0.1605
    152  C         -1.3010   13.9830   -6.1610 C.2   140  PHE140      0.2264
    153  O         -0.1480   13.8040   -5.7690 O.2   140  PHE140     -0.2867
    154  CB        -3.0380   12.3780   -5.3440 C.3   140  PHE140      0.0534
    155  CG        -1.9720   11.3220   -5.4180 C.ar  140  PHE140     -0.0203
    156  CD1       -1.3990   10.8130   -4.2630 C.ar  140  PHE140     -0.0042
    157  CD2       -1.5430   10.8360   -6.6430 C.ar  140  PHE140     -0.0042
    158  CE1       -0.4180    9.8410   -4.3290 C.ar  140  PHE140     -0.0003
    159  CE2       -0.5640    9.8650   -6.7150 C.ar  140  PHE140     -0.0003
    160  CZ         0.0000    9.3660   -5.5560 C.ar  140  PHE140     -0.0000
    161  N          0.5070   17.4240   -5.3770 N.3   143  LEU143     -0.1231
    162  CA         1.3100   17.3620   -4.1620 C.3   143  LEU143      0.1693
    163  C          2.4000   16.3020   -4.2850 C.2   143  LEU143      0.2592
    164  O          3.5560   16.5440   -3.9420 O.2   143  LEU143     -0.2718
    165  CB         0.4220   17.0610   -2.9530 C.3   143  LEU143      0.0284
    166  CG         0.3730   18.1650   -1.8950 C.3   143  LEU143      0.0019
    167  CD1       -0.7110   19.1780   -2.2300 C.3   143  LEU143      0.0001
    168  CD2        0.1380   17.5680   -0.5150 C.3   143  LEU143      0.0001
    169  N          2.0220   15.1260   -4.7760 N.am  144  TYR144     -0.1962
    170  CA         2.9690   14.0290   -4.9440 C.3   144  TYR144      0.1771
    171  C          3.0040   13.5570   -6.3930 C.2   144  TYR144      0.2620
    172  O          2.5800   12.4440   -6.7050 O.2   144  TYR144     -0.2715
    173  CB         2.5990   12.8640   -4.0250 C.3   144  TYR144      0.0574
    174  CG         2.2510   13.2900   -2.6160 C.ar  144  TYR144     -0.0198
    175  CD1        3.1760   13.9550   -1.8220 C.ar  144  TYR144     -0.0009
    176  CD2        0.9960   13.0280   -2.0820 C.ar  144  TYR144     -0.0009
    177  CE1        2.8610   14.3480   -0.5350 C.ar  144  TYR144      0.0417
    178  CE2        0.6740   13.4160   -0.7950 C.ar  144  TYR144      0.0417
    179  CZ         1.6090   14.0760   -0.0270 C.ar  144  TYR144      0.1957
    180  OH         1.2910   14.4650    1.2540 O.3   144  TYR144     -0.2866
    181  N          3.5110   14.4110   -7.2760 N.am  145  GLY145     -0.1954
    182  CA         3.5920   14.0630   -8.6820 C.3   145  GLY145      0.1869
    183  C          4.9270   13.4480   -9.0500 C.2   145  GLY145      0.2309
    184  O          5.7380   13.1960   -8.1340 O.2   145  GLY145     -0.2863
@<TRIPOS>BOND
     1   183   182    1
     2   183   184    2
     3   182   181    1
     4   181   171   am
     5   159   157   ar
     6   159   160   ar
     7   172   171    2
     8   157   155   ar
     9     1     2    1
    10   171   170    1
    11   152   153    2
    12   152   151    1
    13   160   158   ar
    14   150   151    1
    15   155   154    1
    16   155   156   ar
    17   161   162    1
    18   154   151    1
    19     2     5    1
    20     2     3    1
    21   170   169    1
    22   170   173    1
    23    14    12   ar
    24   169   163   am
    25     3     4    2
    26   158   156   ar
    27   163   162    1
    28   163   164    2
    29    11    12    1
    30    11    10    1
    31     6     7    1
    32   162   165    1
    33   173   174    1
    34    12    13   ar
    35    10     7    1
    36     7     8    1
    37   165   166    1
    38   126   127   ar
    39   126   124   ar
    40   127   125   ar
    41   174   176   ar
    42   174   175   ar
    43   148   147    1
    44   146   145    2
    45   167   166    1
    46   176   178   ar
    47   149   147    1
    48   124   121   ar
    49   166   168    1
    50   125   123   ar
    51   175   177   ar
    52     8    15   am
    53     8     9    2
    54    15    16    1
    55   144   147    1
    56   144   145    1
    57   144   143    1
    58   121   123   ar
    59   121   119   ar
    60   123   122   ar
    61   178   179   ar
    62    19    16    1
    63    19    20    1
    64   177   179   ar
    65    16    17    1
    66   122   120   ar
    67   119   118    1
    68   119   120   ar
    69   117   116    2
    70   179   180    1
    71   118   115    1
    72    17    18    2
    73    22    20   ar
    74    22    24   ar
    75    20    21   ar
    76   115   116    1
    77   115   114    1
    78   116   128   am
    79    63    61   ar
    80    63    64   ar
    81   131   130    2
    82    26    27    1
    83    24    25   ar
    84    61    59   ar
    85   128   129    1
    86    21    23   ar
    87   114   108   am
    88   129   130    1
    89   130   132   am
    90   135   134    2
    91   109   108    2
    92    64    62   ar
    93   134   133    1
    94   108   107    1
    95    27    30    1
    96    27    28    1
    97    25    23   ar
    98    59    58    1
    99    59    60   ar
   100    30    31    1
   101    58    55    1
   102    35    34    1
   103   132   133    1
   104    32    31    1
   105    32    33    1
   106    62    60   ar
   107   133   136    1
   108    37    28   am
   109    37    38    1
   110    28    29    2
   111   107   106    1
   112   107   110    1
   113    71    70    1
   114    40    39    2
   115    39    38    1
   116    57    56    2
   117    34    33    2
   118    34    36    1
   119   112   111    2
   120    56    55    1
   121    72    70    1
   122    55    54    1
   123    38    41    1
   124    67    68    2
   125    67    66    1
   126   104   103    1
   127    70    69    1
   128   136   137    1
   129   111   110    1
   130   111   113   am
   131    69    66    1
   132    41    42    1
   133    43    42   ar
   134    43    45   ar
   135    54    51   am
   136    87    86    1
   137    66    65    1
   138    86    83    1
   139    86    88    1
   140    42    44   ar
   141    84    85    2
   142    84    83    1
   143    45    47   ar
   144    75    76    2
   145    75    74    1
   146   103   102    1
   147   103   105    1
   148    73    74    1
   149   137   138    1
   150    82    83    1
   151   102    99    1
   152    51    52    2
   153    51    50    1
   154   138   139    1
   155    74    77    1
   156    44    46   ar
   157    49    50    1
   158    47    46   ar
   159    47    48    1
   160    77    78    1
   161    50    53    1
   162    99   100    1
   163    99    98    1
   164   100   101    2
   165   139   140    2
   166    98    91   am
   167    97    95   ar
   168    89    90    1
   169    94    95    1
   170    94    93    1
   171    95    96   ar
   172    78    79    1
   173   140   141    1
   174   140   142    1
   175    91    90    1
   176    91    92    2
   177    80    79    2
   178    90    93    1
   179    79    81   am
