@<TRIPOS>MOLECULE
tmp/2o2nA00.pdb
 188 183 0 0 0
SMALL
GASTEIGER

@<TRIPOS>ATOM
      1  N         18.0310    8.5850   16.0440 N.3    42  ALA42      -0.1245
      2  CA        19.4070    8.9810   15.7730 C.3    42  ALA42       0.1562
      3  C         19.4550   10.3210   15.0490 C.2    42  ALA42       0.2260
      4  O         20.3600   11.1260   15.2690 O.2    42  ALA42      -0.2867
      5  CB        20.1140    7.9100   14.9560 C.3    42  ALA42       0.0290
      6  N         18.7970   13.4760   17.6040 N.3    45  GLU45      -0.1231
      7  CA        19.9910   13.8420   18.3560 C.3    45  GLU45       0.1699
      8  C         21.0450   14.4620   17.4420 C.2    45  GLU45       0.2592
      9  O         21.8230   15.3170   17.8660 O.2    45  GLU45      -0.2718
     10  CB        20.5680   12.6130   19.0620 C.3    45  GLU45       0.0402
     11  CG        21.2810   12.9380   20.3640 C.3    45  GLU45       0.1161
     12  CD        20.3720   12.8180   21.5710 C.2    45  GLU45       0.3649
     13  OE1       19.2090   13.2660   21.4860 O.co2  45  GLU45      -0.2457
     14  OE2       20.8230   12.2770   22.6030 O.co2  45  GLU45      -0.2457
     15  N         21.0650   14.0240   16.1870 N.am   46  PHE46      -0.1976
     16  CA        22.0230   14.5340   15.2120 C.3    46  PHE46       0.1639
     17  C         22.0060   16.0590   15.1750 C.2    46  PHE46       0.2290
     18  O         23.0190   16.7080   15.4360 O.2    46  PHE46      -0.2864
     19  CB        21.7110   13.9760   13.8210 C.3    46  PHE46       0.0560
     20  CG        22.8160   14.1860   12.8240 C.ar   46  PHE46      -0.0200
     21  CD1       24.0130   13.4970   12.9440 C.ar   46  PHE46      -0.0042
     22  CD2       22.6590   15.0710   11.7690 C.ar   46  PHE46      -0.0042
     23  CE1       25.0320   13.6870   12.0300 C.ar   46  PHE46      -0.0003
     24  CE2       23.6750   15.2650   10.8510 C.ar   46  PHE46      -0.0003
     25  CZ        24.8620   14.5720   10.9830 C.ar   46  PHE46      -0.0000
     26  N         22.6750   17.8330   18.9650 N.3    49  ARG49      -0.1231
     27  CA        24.0940   17.9150   19.2940 C.3    49  ARG49       0.1694
     28  C         24.8690   18.6530   18.2070 C.2    49  ARG49       0.2592
     29  O         24.3250   18.9700   17.1490 O.2    49  ARG49      -0.2718
     30  CB        24.6740   16.5120   19.4820 C.3    49  ARG49       0.0321
     31  CG        24.0590   15.7500   20.6440 C.3    49  ARG49       0.0489
     32  CD        24.8960   15.8880   21.9040 C.3    49  ARG49       0.2205
     33  NE        24.9940   14.6290   22.6380 N.pl3  49  ARG49      -0.0865
     34  CZ        25.3740   14.5380   23.9110 C.cat  49  ARG49       0.5346
     35  NH1       25.6960   15.6280   24.5980 N.pl3  49  ARG49       0.1354
     36  NH2       25.4320   13.3510   24.5000 N.pl3  49  ARG49       0.1354
     37  N         26.1440   18.9190   18.4750 N.am   50  TYR50      -0.1976
     38  CA        26.9990   19.6160   17.5200 C.3    50  TYR50       0.1639
     39  C         26.5590   21.0650   17.3450 C.2    50  TYR50       0.2290
     40  O         25.5140   21.3400   16.7550 O.2    50  TYR50      -0.2864
     41  CB        26.9780   18.9000   16.1670 C.3    50  TYR50       0.0560
     42  CG        28.3030   18.2780   15.7880 C.ar   50  TYR50      -0.0198
     43  CD1       28.7560   17.1280   16.4230 C.ar   50  TYR50      -0.0009
     44  CD2       29.1000   18.8380   14.7970 C.ar   50  TYR50      -0.0009
     45  CE1       29.9660   16.5540   16.0810 C.ar   50  TYR50       0.0417
     46  CE2       30.3110   18.2700   14.4490 C.ar   50  TYR50       0.0417
     47  CZ        30.7390   17.1290   15.0940 C.ar   50  TYR50       0.1957
     48  OH        31.9440   16.5610   14.7510 O.3    50  TYR50      -0.2866
     49  N         28.6640   23.3240   12.1420 N.3    53  ALA53      -0.1231
     50  CA        28.6040   22.2510   11.1560 C.3    53  ALA53       0.1694
     51  C         27.2320   21.5860   11.1480 C.2    53  ALA53       0.2592
     52  O         27.0550   20.4990   11.6980 O.2    53  ALA53      -0.2718
     53  CB        29.6890   21.2220   11.4310 C.3    53  ALA53       0.0304
     54  N         26.2650   22.2450   10.5200 N.am   54  PHE54      -0.1976
     55  CA        24.9080   21.7160   10.4390 C.3    54  PHE54       0.1639
     56  C         23.9590   22.7450    9.8340 C.2    54  PHE54       0.2290
     57  O         23.2920   22.4770    8.8340 O.2    54  PHE54      -0.2864
     58  CB        24.4160   21.3010   11.8250 C.3    54  PHE54       0.0560
     59  CG        22.9940   21.7010   12.1020 C.ar   54  PHE54      -0.0200
     60  CD1       21.9440   21.0530   11.4720 C.ar   54  PHE54      -0.0042
     61  CD2       22.7090   22.7240   12.9920 C.ar   54  PHE54      -0.0042
     62  CE1       20.6350   21.4190   11.7240 C.ar   54  PHE54      -0.0003
     63  CE2       21.4030   23.0940   13.2480 C.ar   54  PHE54      -0.0003
     64  CZ        20.3640   22.4410   12.6130 C.ar   54  PHE54      -0.0000
     65  N         26.0190   24.0040    6.7050 N.3    57  LEU57      -0.1245
     66  CA        26.1500   22.9340    5.7240 C.3    57  LEU57       0.1561
     67  C         24.8980   22.8330    4.8580 C.2    57  LEU57       0.2260
     68  O         24.9790   22.8170    3.6310 O.2    57  LEU57      -0.2867
     69  CB        26.4030   21.5990    6.4260 C.3    57  LEU57       0.0270
     70  CG        27.8710   21.2930    6.7300 C.3    57  LEU57       0.0019
     71  CD1       28.6440   21.0490    5.4430 C.3    57  LEU57       0.0001
     72  CD2       28.5000   22.4280    7.5230 C.3    57  LEU57       0.0001
     73  N         24.8760   25.0440    2.1060 N.3    60  GLN60      -0.1245
     74  CA        25.8650   24.7790    1.0640 C.3    60  GLN60       0.1566
     75  C         25.1950   24.4160   -0.2590 C.2    60  GLN60       0.2260
     76  O         25.6300   24.8550   -1.3240 O.2    60  GLN60      -0.2867
     77  CB        26.8070   23.6530    1.4950 C.3    60  GLN60       0.0367
     78  CG        27.6980   24.0200    2.6700 C.3    60  GLN60       0.0905
     79  CD        29.0590   24.5270    2.2330 C.2    60  GLN60       0.2608
     80  OE1       29.3790   24.5370    1.0450 O.2    60  GLN60      -0.2717
     81  NE2       29.8690   24.9520    3.1960 N.am   60  GLN60      -0.0878
     82  N         28.0380   17.2160   -2.3660 N.3    75  VAL75      -0.1245
     83  CA        27.8100   17.5510   -0.9650 C.3    75  VAL75       0.1561
     84  C         27.9070   16.3080   -0.0890 C.2    75  VAL75       0.2260
     85  O         28.4070   16.3650    1.0340 O.2    75  VAL75      -0.2867
     86  CB        26.4320   18.2060   -0.7610 C.3    75  VAL75       0.0252
     87  CG1       26.0170   18.1360    0.7000 C.3    75  VAL75       0.0019
     88  CG2       26.4480   19.6470   -1.2490 C.3    75  VAL75       0.0019
     89  N         31.6280   14.9870    0.4770 N.3    78  GLU78      -0.1231
     90  CA        32.3250   15.7000    1.5410 C.3    78  GLU78       0.1699
     91  C         32.0110   15.0810    2.8990 C.2    78  GLU78       0.2592
     92  O         32.8790   14.9850    3.7660 O.2    78  GLU78      -0.2718
     93  CB        31.9330   17.1780    1.5350 C.3    78  GLU78       0.0402
     94  CG        32.8730   18.0620    2.3380 C.3    78  GLU78       0.1161
     95  CD        34.1000   18.4780    1.5500 C.2    78  GLU78       0.3649
     96  OE1       33.9600   19.3110    0.6300 O.co2  78  GLU78      -0.2457
     97  OE2       35.2010   17.9710    1.8530 O.co2  78  GLU78      -0.2457
     98  N         30.7620   14.6590    3.0730 N.am   79  LEU79      -0.1980
     99  CA        30.3270   14.0430    4.3210 C.3    79  LEU79       0.1596
    100  C         31.1060   12.7610    4.5920 C.2    79  LEU79       0.2287
    101  O         31.5060   12.4920    5.7250 O.2    79  LEU79      -0.2864
    102  CB        28.8310   13.7350    4.2640 C.3    79  LEU79       0.0297
    103  CG        28.1590   13.5530    5.6260 C.3    79  LEU79       0.0022
    104  CD1       26.8580   14.3380    5.6910 C.3    79  LEU79       0.0001
    105  CD2       27.9090   12.0770    5.9010 C.3    79  LEU79       0.0001
    106  N         31.0050    5.6350    8.4140 N.3    85  ASN85      -0.1225
    107  CA        30.6510    5.0330    9.6940 C.3    85  ASN85       0.1785
    108  C         29.2000    5.3340   10.0570 C.2    85  ASN85       0.2597
    109  O         28.5940    6.2590    9.5170 O.2    85  ASN85      -0.2718
    110  CB        31.5800    5.5460   10.7960 C.3    85  ASN85       0.1169
    111  CG        31.5840    7.0590   10.8910 C.2    85  ASN85       0.2627
    112  OD1       30.8540    7.7400   10.1710 O.2    85  ASN85      -0.2716
    113  ND2       32.4100    7.5940   11.7830 N.am   85  ASN85      -0.0877
    114  N         28.6500    4.5480   10.9770 N.am   86  TRP86      -0.1962
    115  CA        27.2710    4.7330   11.4130 C.3    86  TRP86       0.1771
    116  C         27.0190    6.1850   11.8040 C.2    86  TRP86       0.2620
    117  O         25.9590    6.7410   11.5170 O.2    86  TRP86      -0.2715
    118  CB        26.9590    3.8110   12.5940 C.3    86  TRP86       0.0590
    119  CG        26.9360    2.3590   12.2240 C.ar   86  TRP86       0.0006
    120  CD1       27.6260    1.3480   12.8290 C.ar   86  TRP86       0.0946
    121  CD2       26.1860    1.7560   11.1630 C.ar   86  TRP86       0.0152
    122  NE1       27.3500    0.1530   12.2100 N.ar   86  TRP86      -0.2442
    123  CE2       26.4690    0.3770   11.1850 C.ar   86  TRP86       0.0810
    124  CE3       25.3020    2.2480   10.1980 C.ar   86  TRP86       0.0012
    125  CZ2       25.8990   -0.5140   10.2780 C.ar   86  TRP86       0.0191
    126  CZ3       24.7380    1.3620    9.3000 C.ar   86  TRP86       0.0001
    127  CH2       25.0380   -0.0050    9.3450 C.ar   86  TRP86       0.0015
    128  N         28.0020    6.7920   12.4600 N.am   87  GLY87      -0.1940
    129  CA        27.8710    8.1750   12.8810 C.3    87  GLY87       0.2014
    130  C         27.5820    9.1100   11.7230 C.2    87  GLY87       0.2638
    131  O         26.6360    9.8950   11.7710 O.2    87  GLY87      -0.2714
    132  N         28.4000    9.0250   10.6780 N.am   88  ARG88      -0.1977
    133  CA        28.2290    9.8700    9.5030 C.3    88  ARG88       0.1597
    134  C         27.0310    9.4160    8.6760 C.2    88  ARG88       0.2287
    135  O         26.3450   10.2310    8.0600 O.2    88  ARG88      -0.2864
    136  CB        29.4930    9.8470    8.6420 C.3    88  ARG88       0.0334
    137  CG        30.6680   10.5810    9.2670 C.3    88  ARG88       0.0492
    138  CD        31.7720   10.8300    8.2540 C.3    88  ARG88       0.2205
    139  NE        33.1000   10.6530    8.8360 N.pl3  88  ARG88      -0.0865
    140  CZ        33.6210   11.4610    9.7580 C.cat  88  ARG88       0.5346
    141  NH1       32.9380   12.5110   10.2000 N.pl3  88  ARG88       0.1354
    142  NH2       34.8340   11.2200   10.2380 N.pl3  88  ARG88       0.1354
    143  N         24.1210    8.5980    9.4560 N.3    90  VAL90      -0.1231
    144  CA        22.9240    9.3350    9.8440 C.3    90  VAL90       0.1692
    145  C         22.9060   10.7190    9.2050 C.2    90  VAL90       0.2591
    146  O         21.8500   11.2270    8.8270 O.2    90  VAL90      -0.2718
    147  CB        22.8250    9.4850   11.3740 C.3    90  VAL90       0.0266
    148  CG1       21.5780   10.2670   11.7560 C.3    90  VAL90       0.0020
    149  CG2       22.8300    8.1190   12.0440 C.3    90  VAL90       0.0020
    150  N         24.0850   11.3230    9.0840 N.am   91  ALA91      -0.1980
    151  CA        24.2110   12.6480    8.4880 C.3    91  ALA91       0.1597
    152  C         23.5930   12.6830    7.0950 C.2    91  ALA91       0.2287
    153  O         22.8930   13.6310    6.7380 O.2    91  ALA91      -0.2864
    154  CB        25.6730   13.0590    8.4270 C.3    91  ALA91       0.0319
    155  N         20.6250   15.2490    6.2680 N.3    95  PHE95      -0.1241
    156  CA        20.8790   16.2510    5.2410 C.3    95  PHE95       0.1605
    157  C         19.7430   16.2820    4.2230 C.2    95  PHE95       0.2264
    158  O         19.2710   17.3520    3.8360 O.2    95  PHE95      -0.2867
    159  CB        22.2030   15.9680    4.5310 C.3    95  PHE95       0.0534
    160  CG        22.4670   16.8890    3.3750 C.ar   95  PHE95      -0.0203
    161  CD1       21.9580   16.6070    2.1170 C.ar   95  PHE95      -0.0042
    162  CD2       23.2220   18.0380    3.5470 C.ar   95  PHE95      -0.0042
    163  CE1       22.1980   17.4550    1.0520 C.ar   95  PHE95      -0.0003
    164  CE2       23.4640   18.8900    2.4860 C.ar   95  PHE95      -0.0003
    165  CZ        22.9510   18.5980    1.2370 C.ar   95  PHE95      -0.0000
    166  N         23.4680   -1.3640   13.3580 N.3   140  PHE140     -0.1241
    167  CA        23.1910    0.0330   13.6720 C.3   140  PHE140      0.1605
    168  C         22.1570    0.1480   14.7880 C.2   140  PHE140      0.2264
    169  O         22.2140    1.0640   15.6080 O.2   140  PHE140     -0.2867
    170  CB        22.6960    0.7690   12.4260 C.3   140  PHE140      0.0534
    171  CG        22.1820    2.1520   12.7100 C.ar  140  PHE140     -0.0203
    172  CD1       20.8480    2.3590   13.0250 C.ar  140  PHE140     -0.0042
    173  CD2       23.0330    3.2440   12.6640 C.ar  140  PHE140     -0.0042
    174  CE1       20.3740    3.6300   13.2880 C.ar  140  PHE140     -0.0003
    175  CE2       22.5640    4.5180   12.9250 C.ar  140  PHE140     -0.0003
    176  CZ        21.2330    4.7110   13.2380 C.ar  140  PHE140     -0.0000
    177  N         23.1410    1.4040   18.1480 N.3   144  TYR144     -0.1241
    178  CA        22.4350    2.6750   18.2610 C.3   144  TYR144      0.1605
    179  C         20.9570    2.5060   17.9280 C.2   144  TYR144      0.2264
    180  O         20.5610    2.5750   16.7650 O.2   144  TYR144     -0.2867
    181  CB        23.0610    3.7160   17.3310 C.3   144  TYR144      0.0534
    182  CG        24.5730    3.6980   17.3280 C.ar  144  TYR144     -0.0201
    183  CD1       25.2720    2.6950   16.6700 C.ar  144  TYR144     -0.0009
    184  CD2       25.2990    4.6860   17.9800 C.ar  144  TYR144     -0.0009
    185  CE1       26.6540    2.6760   16.6630 C.ar  144  TYR144      0.0417
    186  CE2       26.6810    4.6750   17.9770 C.ar  144  TYR144      0.0417
    187  CZ        27.3530    3.6680   17.3170 C.ar  144  TYR144      0.1957
    188  OH        28.7290    3.6530   17.3120 O.3   144  TYR144     -0.2866
@<TRIPOS>BOND
     1    82    83    1
     2    76    75    2
     3    88    86    1
     4    83    86    1
     5    83    84    1
     6    86    87    1
     7    75    74    1
     8    84    85    2
     9    89    90    1
    10    96    95   ar
    11    80    79    2
    12   163   165   ar
    13   163   161   ar
    14    74    77    1
    15    74    73    1
    16   165   164   ar
    17    77    78    1
    18    93    90    1
    19    93    94    1
    20    90    91    1
    21    95    97   ar
    22    95    94    1
    23   161   160   ar
    24    79    78    1
    25    79    81   am
    26   164   162   ar
    27    91    98   am
    28    91    92    2
    29    98    99    1
    30   160   162   ar
    31   160   159    1
    32    68    67    2
    33   158   157    2
    34   157   156    1
    35   102    99    1
    36   102   103    1
    37    99   100    1
    38   159   156    1
    39   100   101    2
    40    67    66    1
    41   156   155    1
    42    71    70    1
    43   103   104    1
    44   103   105    1
    45    66    69    1
    46    66    65    1
    47    69    70    1
    48    70    72    1
    49   153   152    2
    50   152   151    1
    51   135   134    2
    52   138   139    1
    53   138   137    1
    54   106   107    1
    55   154   151    1
    56   151   150    1
    57   136   137    1
    58   136   133    1
    59   134   133    1
    60   146   145    2
    61    57    56    2
    62   139   140    2
    63   150   145   am
    64   145   144    1
    65   126   127   ar
    66   126   124   ar
    67   127   125   ar
    68   143   144    1
    69   133   132    1
    70   109   108    2
    71   107   108    1
    72   107   110    1
    73   140   141    1
    74   140   142    1
    75    56    55    1
    76   144   147    1
    77   108   114   am
    78   112   111    2
    79   124   121   ar
    80   125   123   ar
    81    55    54    1
    82    55    58    1
    83    54    51   am
    84   132   130   am
    85   110   111    1
    86    24    25   ar
    87    24    22   ar
    88   111   113   am
    89   114   115    1
    90    25    23   ar
    91    51    50    1
    92    51    52    2
    93    50    53    1
    94    50    49    1
    95   121   123   ar
    96   121   119   ar
    97   123   122   ar
    98   147   148    1
    99   147   149    1
   100   115   116    1
   101   115   118    1
   102    60    62   ar
   103    60    59   ar
   104   117   116    2
   105   130   131    2
   106   130   129    1
   107    62    64   ar
   108    22    20   ar
   109   116   128   am
   110    58    59    1
   111    23    21   ar
   112    59    61   ar
   113   122   120   ar
   114   119   118    1
   115   119   120   ar
   116   170   171    1
   117   170   167    1
   118   128   129    1
   119    64    63   ar
   120   173   171   ar
   121   173   175   ar
   122   171   172   ar
   123    20    21   ar
   124    20    19    1
   125   175   176   ar
   126    61    63   ar
   127   172   174   ar
   128   176   174   ar
   129   166   167    1
   130   167   168    1
   131    19    16    1
   132    46    44   ar
   133    46    47   ar
   134    48    47    1
   135   168   169    2
   136    44    42   ar
   137     5     2    1
   138     3     4    2
   139     3     2    1
   140    47    45   ar
   141    17    16    1
   142    17    18    2
   143    16    15    1
   144     2     1    1
   145    42    41    1
   146    42    43   ar
   147    45    43   ar
   148    41    38    1
   149    15     8   am
   150   185   183   ar
   151   185   187   ar
   152   183   182   ar
   153    40    39    2
   154   180   179    2
   155    29    28    2
   156   188   187    1
   157   187   186   ar
   158   182   181    1
   159   182   184   ar
   160   181   178    1
   161    39    38    1
   162     8     9    2
   163     8     7    1
   164    38    37    1
   165     6     7    1
   166   179   178    1
   167   186   184   ar
   168   177   178    1
   169    28    37   am
   170    28    27    1
   171     7    10    1
   172    26    27    1
   173    10    11    1
   174    27    30    1
   175    30    31    1
   176    11    12    1
   177    31    32    1
   178    13    12   ar
   179    12    14   ar
   180    32    33    1
   181    33    34    2
   182    34    36    1
   183    34    35    1
