@<TRIPOS>MOLECULE
tmp/2o2rC00.pdb
 172 170 0 0 0
SMALL
GASTEIGER

@<TRIPOS>ATOM
      1  N         87.6620   18.2460   60.8490 N.3   166  VAL166     -0.1231
      2  CA        88.1160   18.5530   62.1930 C.3   166  VAL166      0.1692
      3  C         88.1460   17.2430   62.9340 C.2   166  VAL166      0.2592
      4  O         87.1320   16.5260   63.0000 O.2   166  VAL166     -0.2718
      5  CB        87.1890   19.5660   62.8960 C.3   166  VAL166      0.0266
      6  CG1       87.6220   19.7730   64.3310 C.3   166  VAL166      0.0020
      7  CG2       87.1640   20.8860   62.1260 C.3   166  VAL166      0.0020
      8  N         89.3190   16.8950   63.4500 N.am  167  ILE167     -0.1966
      9  CA        89.4890   15.5710   64.0350 C.3   167  ILE167      0.1712
     10  C         90.1070   15.5650   65.4360 C.2   167  ILE167      0.2458
     11  O         90.6630   16.5880   65.8780 O.2   167  ILE167     -0.2730
     12  CB        90.2810   14.6480   63.1060 C.3   167  ILE167      0.0289
     13  CG1       91.4910   15.3780   62.5240 C.3   167  ILE167      0.0022
     14  CG2       89.3480   14.1160   61.9630 C.3   167  ILE167      0.0023
     15  CD1       92.5400   14.4550   62.0290 C.3   167  ILE167      0.0001
     16  N         89.9520   14.4270   66.1550 N.am  168  PRO168     -0.2716
     17  CA        90.4920   14.3650   67.4990 C.3   168  PRO168      0.1536
     18  C         91.8980   13.7430   67.5360 C.2   168  PRO168      0.2598
     19  O         92.5370   13.5100   66.4740 O.2   168  PRO168     -0.2715
     20  CB        89.4480   13.5240   68.2460 C.3   168  PRO168      0.0310
     21  CG        88.8820   12.5670   67.1500 C.3   168  PRO168      0.0237
     22  CD        89.2690   13.1620   65.7960 C.3   168  PRO168      0.0939
     23  N         92.3560   13.4860   68.7570 N.am  169  TRP169     -0.1974
     24  CA        93.7490   13.1420   69.0390 C.3   169  TRP169      0.1640
     25  C         93.9800   11.6620   69.2910 C.2   169  TRP169      0.2290
     26  O         95.1330   11.2460   69.4320 O.2   169  TRP169     -0.2864
     27  CB        94.2510   13.9490   70.2430 C.3   169  TRP169      0.0576
     28  CG        93.2440   14.0230   71.3830 C.ar  169  TRP169      0.0006
     29  CD1       92.4000   15.0490   71.6500 C.ar  169  TRP169      0.0946
     30  CD2       92.9800   13.0220   72.3690 C.ar  169  TRP169      0.0152
     31  NE1       91.6240   14.7560   72.7460 N.ar  169  TRP169     -0.2442
     32  CE2       91.9560   13.5140   73.2020 C.ar  169  TRP169      0.0810
     33  CE3       93.4890   11.7410   72.6140 C.ar  169  TRP169      0.0012
     34  CZ2       91.4480   12.7830   74.2870 C.ar  169  TRP169      0.0191
     35  CZ3       92.9840   11.0100   73.7010 C.ar  169  TRP169      0.0001
     36  CH2       91.9780   11.5340   74.5150 C.ar  169  TRP169      0.0015
     37  N         91.9200   20.2400   60.0900 N.3   193  LYS193     -0.1231
     38  CA        92.3840   20.7130   61.3820 C.3   193  LYS193      0.1678
     39  C         92.6460   19.4940   62.2890 C.2   193  LYS193      0.2434
     40  O         91.6960   18.9480   62.8580 O.2   193  LYS193     -0.2733
     41  CB        91.2920   21.5710   62.0280 C.3   193  LYS193      0.0284
     42  CG        91.7970   22.7250   62.8650 C.3   193  LYS193      0.0035
     43  CD        92.4700   22.3710   64.1470 C.3   193  LYS193      0.0206
     44  CE        91.4520   22.0630   65.2290 C.3   193  LYS193      0.1093
     45  NZ        92.2360   21.4790   66.3860 N.3   193  LYS193     -0.1314
     46  N         93.9210   19.0900   62.4500 N.am  194  PRO194     -0.2718
     47  CA        94.2270   18.0210   63.4150 C.3   194  PRO194      0.1535
     48  C         94.0340   18.5480   64.8320 C.2   194  PRO194      0.2598
     49  O         94.0280   19.7660   65.0330 O.2   194  PRO194     -0.2715
     50  CB        95.7150   17.7070   63.1620 C.3   194  PRO194      0.0310
     51  CG        96.2780   19.0310   62.6510 C.3   194  PRO194      0.0237
     52  CD        95.1330   19.6460   61.8210 C.3   194  PRO194      0.0939
     53  N         93.8400   17.6540   65.8050 N.am  195  ALA195     -0.1964
     54  CA        93.7460   18.0880   67.2090 C.3   195  ALA195      0.1728
     55  C         95.0080   18.8770   67.5070 C.2   195  ALA195      0.2616
     56  O         96.0990   18.4970   67.0570 O.2   195  ALA195     -0.2715
     57  CB        93.6490   16.9170   68.1350 C.3   195  ALA195      0.0334
     58  N         94.8880   19.9620   68.2570 N.am  196  GLN196     -0.1963
     59  CA        96.0820   20.7410   68.5420 C.3   196  GLN196      0.1733
     60  C         97.1940   19.8910   69.1820 C.2   196  GLN196      0.2616
     61  O         98.3600   20.0460   68.8530 O.2   196  GLN196     -0.2715
     62  CB        95.7750   21.9810   69.3740 C.3   196  GLN196      0.0408
     63  CG        96.9840   22.9080   69.4910 C.3   196  GLN196      0.0908
     64  CD        96.6730   24.2520   70.1500 C.2   196  GLN196      0.2608
     65  OE1       95.5450   24.5150   70.5650 O.2   196  GLN196     -0.2717
     66  NE2       97.6810   25.1060   70.2410 N.am  196  GLN196     -0.0878
     67  N         96.8350   18.9700   70.0620 N.am  197  VAL197     -0.1977
     68  CA        97.8580   18.1700   70.7700 C.3   197  VAL197      0.1596
     69  C         98.5850   17.1290   69.9260 C.2   197  VAL197      0.2287
     70  O         99.6170   16.6330   70.3690 O.2   197  VAL197     -0.2864
     71  CB        97.3150   17.4640   72.0410 C.3   197  VAL197      0.0276
     72  CG1       97.0190   18.4910   73.1310 C.3   197  VAL197      0.0022
     73  CG2       96.0730   16.5740   71.7000 C.3   197  VAL197      0.0022
     74  N         94.1400   25.6420   67.3440 N.3   225  SER225     -0.1202
     75  CA        93.0810   25.3710   68.2800 C.3   225  SER225      0.2020
     76  C         91.7320   25.2570   67.5960 C.2   225  SER225      0.2619
     77  O         91.4500   25.9470   66.6010 O.2   225  SER225     -0.2717
     78  CB        93.0560   26.4570   69.3500 C.3   225  SER225      0.2103
     79  OG        92.2550   27.5190   68.9060 O.3   225  SER225     -0.2182
     80  N         90.8820   24.3910   68.1380 N.am  226  GLY226     -0.1942
     81  CA        89.5290   24.2730   67.6290 C.3   226  GLY226      0.2014
     82  C         88.7620   25.5780   67.7180 C.2   226  GLY226      0.2639
     83  O         88.0660   25.9630   66.7790 O.2   226  GLY226     -0.2714
     84  N         88.8870   26.2640   68.8530 N.am  227  SER227     -0.1949
     85  CA        88.0930   27.4730   69.0990 C.3   227  SER227      0.1924
     86  C         88.4510   28.6280   68.1610 C.2   227  SER227      0.2314
     87  O         87.6470   29.5410   67.9740 O.2   227  SER227     -0.2863
     88  CB        88.1780   27.9000   70.5680 C.3   227  SER227      0.2116
     89  OG        89.4960   28.2980   70.8900 O.3   227  SER227     -0.2180
     90  N         89.1250   25.7310   63.9570 N.3   230  GLY230     -0.1210
     91  CA        87.9560   24.9040   63.7320 C.3   230  GLY230      0.1956
     92  C         86.7140   25.7600   63.5870 C.2   230  GLY230      0.2611
     93  O         85.8820   25.5030   62.7210 O.2   230  GLY230     -0.2717
     94  N         86.5980   26.7700   64.4590 N.am  231  GLN231     -0.1979
     95  CA        85.5080   27.7450   64.4180 C.3   231  GLN231      0.1601
     96  C         85.4600   28.4860   63.0890 C.2   231  GLN231      0.2287
     97  O         84.4100   28.5820   62.4720 O.2   231  GLN231     -0.2864
     98  CB        85.6230   28.7540   65.5730 C.3   231  GLN231      0.0394
     99  CG        84.4060   29.6640   65.7260 C.3   231  GLN231      0.0908
    100  CD        83.1470   28.8790   66.0550 C.2   231  GLN231      0.2608
    101  OE1       83.1060   28.1500   67.0470 O.2   231  GLN231     -0.2717
    102  NE2       82.1190   29.0130   65.2180 N.am  231  GLN231     -0.0878
    103  N         84.1380   26.2290   60.2330 N.3   234  SER234     -0.1217
    104  CA        82.6840   26.0510   60.2880 C.3   234  SER234      0.1889
    105  C         81.8770   27.3390   59.9790 C.2   234  SER234      0.2288
    106  O         80.7150   27.2600   59.5540 O.2   234  SER234     -0.2866
    107  CB        82.2650   25.3650   61.5940 C.3   234  SER234      0.2089
    108  OG        82.3960   26.2240   62.7040 O.3   234  SER234     -0.2183
    109  N         83.1630   16.0660   61.1550 N.3   244  PHE244     -0.1227
    110  CA        83.6910   16.2230   62.5070 C.3   244  PHE244      0.1736
    111  C         83.6410   14.9300   63.3080 C.2   244  PHE244      0.2596
    112  O         82.6410   14.1960   63.2690 O.2   244  PHE244     -0.2718
    113  CB        82.9170   17.3090   63.2460 C.3   244  PHE244      0.0547
    114  CG        83.2550   17.4190   64.7350 C.ar  244  PHE244     -0.0202
    115  CD1       84.3490   18.1720   65.1650 C.ar  244  PHE244     -0.0042
    116  CD2       82.4560   16.8050   65.6940 C.ar  244  PHE244     -0.0042
    117  CE1       84.6430   18.3030   66.5270 C.ar  244  PHE244     -0.0003
    118  CE2       82.7460   16.9210   67.0470 C.ar  244  PHE244     -0.0003
    119  CZ        83.8360   17.6860   67.4650 C.ar  244  PHE244     -0.0000
    120  N         84.7220   14.6650   64.0380 N.am  245  THR245     -0.1939
    121  CA        84.7530   13.6250   65.0540 C.3   245  THR245      0.2028
    122  C         85.2810   14.2560   66.3460 C.2   245  THR245      0.2643
    123  O         86.2800   14.9880   66.3310 O.2   245  THR245     -0.2714
    124  CB        85.6500   12.4630   64.6160 C.3   245  THR245      0.1808
    125  OG1       85.1130   11.8820   63.4300 O.3   245  THR245     -0.2208
    126  CG2       85.7710   11.3780   65.7310 C.3   245  THR245      0.0379
    127  N         84.6020   13.9880   67.4590 N.am  246  GLY246     -0.1939
    128  CA        85.0370   14.4650   68.7650 C.3   246  GLY246      0.2014
    129  C         83.9170   14.3620   69.7800 C.2   246  GLY246      0.2639
    130  O         83.1120   13.4250   69.7320 O.2   246  GLY246     -0.2714
    131  N         83.8580   15.3240   70.6950 N.am  247  SER247     -0.1949
    132  CA        82.9060   15.2800   71.7920 C.3   247  SER247      0.1924
    133  C         81.5230   15.7560   71.3360 C.2   247  SER247      0.2314
    134  O         81.3990   16.4840   70.3500 O.2   247  SER247     -0.2863
    135  CB        83.4140   16.1390   72.9480 C.3   247  SER247      0.2116
    136  OG        83.3980   17.5150   72.6060 O.3   247  SER247     -0.2180
    137  N         81.1660   19.8080   71.5530 N.3   250  VAL250     -0.1245
    138  CA        81.7870   20.5090   70.4270 C.3   250  VAL250      0.1561
    139  C         80.9990   20.2580   69.1260 C.2   250  VAL250      0.2260
    140  O         80.8130   21.1780   68.3250 O.2   250  VAL250     -0.2867
    141  CB        83.2630   20.1440   70.2860 C.3   250  VAL250      0.0252
    142  CG1       83.8770   20.8520   69.0880 C.3   250  VAL250      0.0019
    143  CG2       84.0010   20.5200   71.5730 C.3   250  VAL250      0.0019
    144  N         78.0320   22.4860   68.8890 N.3   253  HIS253     -0.1226
    145  CA        78.4880   23.8230   68.5610 C.3   253  HIS253      0.1752
    146  C         78.9120   23.9650   67.0980 C.2   253  HIS253      0.2595
    147  O         78.6110   24.9770   66.4500 O.2   253  HIS253     -0.2718
    148  CB        79.6410   24.2240   69.4700 C.3   253  HIS253      0.0759
    149  CG        80.1050   25.6250   69.2430 C.ar  253  HIS253      0.0818
    150  ND1       79.4060   26.7200   69.7050 N.ar  253  HIS253     -0.2268
    151  CD2       81.1680   26.1150   68.5610 C.ar  253  HIS253      0.1154
    152  CE1       80.0350   27.8260   69.3410 C.ar  253  HIS253      0.1986
    153  NE2       81.1080   27.4860   68.6470 N.ar  253  HIS253     -0.2212
    154  N         79.6050   22.9510   66.5830 N.am  254  ILE254     -0.1980
    155  CA        79.9640   22.8970   65.1560 C.3   254  ILE254      0.1595
    156  C         78.7140   22.9130   64.2790 C.2   254  ILE254      0.2287
    157  O         78.6410   23.6800   63.3300 O.2   254  ILE254     -0.2864
    158  CB        80.8750   21.6650   64.8300 C.3   254  ILE254      0.0276
    159  CG1       82.2670   21.8930   65.4210 C.3   254  ILE254      0.0022
    160  CG2       80.9630   21.3940   63.3050 C.3   254  ILE254      0.0022
    161  CD1       83.3070   20.8880   64.9840 C.3   254  ILE254      0.0001
    162  N         86.9610    7.3500   77.9940 N.3   402  PHE402     -0.1241
    163  CA        87.9800    7.4150   76.9350 C.3   402  PHE402      0.1605
    164  C         89.3600    7.0050   77.4860 C.2   402  PHE402      0.2264
    165  O         90.3980    7.5190   77.0740 O.2   402  PHE402     -0.2867
    166  CB        88.0110    8.8270   76.3280 C.3   402  PHE402      0.0534
    167  CG        88.1730    8.8420   74.8460 C.ar  402  PHE402     -0.0203
    168  CD1       87.2990    8.1350   74.0330 C.ar  402  PHE402     -0.0042
    169  CD2       89.2060    9.5690   74.2540 C.ar  402  PHE402     -0.0042
    170  CE1       87.4540    8.1530   72.6360 C.ar  402  PHE402     -0.0003
    171  CE2       89.3660    9.5850   72.8660 C.ar  402  PHE402     -0.0003
    172  CZ        88.4860    8.8860   72.0680 C.ar  402  PHE402     -0.0000
@<TRIPOS>BOND
     1   106   105    2
     2   105   104    1
     3    37    38    1
     4   103   104    1
     5   104   107    1
     6     1     2    1
     7   109   110    1
     8    38    41    1
     9    38    39    1
    10   107   108    1
    11    52    46    1
    12    52    51    1
    13    14    12    1
    14    41    42    1
    15    15    13    1
    16     7     5    1
    17     2     5    1
    18     2     3    1
    19    39    46   am
    20    39    40    2
    21    46    47    1
    22    97    96    2
    23   110   113    1
    24   110   111    1
    25    13    12    1
    26    51    50    1
    27    93    92    2
    28    42    43    1
    29     5     6    1
    30     3     4    2
    31     3     8   am
    32    96    95    1
    33    12     9    1
    34    50    47    1
    35   113   114    1
    36   112   111    2
    37   160   158    1
    38   111   120   am
    39   157   156    2
    40    47    48    1
    41   125   124    1
    42     8     9    1
    43    92    91    1
    44    92    94   am
    45    91    90    1
    46     9    10    1
    47   120   121    1
    48    43    44    1
    49   156   155    1
    50    95    94    1
    51    95    98    1
    52   124   121    1
    53   124   126    1
    54   114   115   ar
    55   114   116   ar
    56   158   155    1
    57   158   159    1
    58    48    49    2
    59    48    53   am
    60   161   159    1
    61   121   122    1
    62   155   154    1
    63   115   117   ar
    64   102   100   am
    65    44    45    1
    66    10    11    2
    67    10    16   am
    68    98    99    1
    69   116   118   ar
    70    99   100    1
    71    22    16    1
    72    22    21    1
    73    53    54    1
    74   100   101    2
    75    16    17    1
    76   123   122    2
    77   122   127   am
    78   147   146    2
    79    19    18    2
    80   117   119   ar
    81   154   146   am
    82    77    76    2
    83    83    82    2
    84   118   119   ar
    85    56    55    2
    86   146   145    1
    87    21    20    1
    88    54    55    1
    89    54    57    1
    90    74    75    1
    91   127   128    1
    92    17    18    1
    93    17    20    1
    94    55    58   am
    95    18    23   am
    96    76    80   am
    97    76    75    1
    98    81    82    1
    99    81    80    1
   100    82    84   am
   101    87    86    2
   102    86    85    1
   103    58    59    1
   104    75    78    1
   105   140   139    2
   106    59    60    1
   107    59    62    1
   108   151   153   ar
   109   151   149   ar
   110   145   144    1
   111   145   148    1
   112   153   152   ar
   113    23    24    1
   114   128   129    1
   115    84    85    1
   116    61    60    2
   117    79    78    1
   118    24    25    1
   119    24    27    1
   120   142   141    1
   121    85    88    1
   122   139   138    1
   123    60    67   am
   124   149   148    1
   125   149   150   ar
   126    25    26    2
   127   152   150   ar
   128    62    63    1
   129    63    64    1
   130   130   129    2
   131   129   131   am
   132    69    70    2
   133    69    68    1
   134    67    68    1
   135    64    66   am
   136    64    65    2
   137    27    28    1
   138   141   138    1
   139   141   143    1
   140   134   133    2
   141   138   137    1
   142    88    89    1
   143   131   132    1
   144    68    71    1
   145   133   132    1
   146    28    29   ar
   147    28    30   ar
   148    29    31   ar
   149    73    71    1
   150   132   135    1
   151    71    72    1
   152   172   170   ar
   153   172   171   ar
   154    30    33   ar
   155    30    32   ar
   156   136   135    1
   157    33    35   ar
   158   170   168   ar
   159    31    32   ar
   160   171   169   ar
   161    32    34   ar
   162    35    36   ar
   163   168   167   ar
   164   169   167   ar
   165    34    36   ar
   166   167   166    1
   167   166   163    1
   168   163   164    1
   169   163   162    1
   170   165   164    2
