@<TRIPOS>MOLECULE
tmp/2o2sA01.pdb
 152 144 0 0 0
SMALL
GASTEIGER

@<TRIPOS>ATOM
      1  N        -22.3430   43.7020   34.1350 N.3   124  SER124     -0.1202
      2  CA       -23.7670   43.9590   33.9310 C.3   124  SER124      0.2020
      3  C        -24.5640   43.5550   35.1730 C.2   124  SER124      0.2619
      4  O        -25.5000   42.7390   35.1010 O.2   124  SER124     -0.2717
      5  CB       -24.2510   43.1490   32.7330 C.3   124  SER124      0.2103
      6  OG       -25.6170   43.3280   32.4840 O.3   124  SER124     -0.2182
      7  N        -24.1890   44.1220   36.3190 N.am  125  LEU125     -0.1965
      8  CA       -24.8880   43.8360   37.5700 C.3   125  LEU125      0.1728
      9  C        -24.8780   45.0510   38.4860 C.2   125  LEU125      0.2616
     10  O        -23.9520   45.8720   38.4560 O.2   125  LEU125     -0.2715
     11  CB       -24.2630   42.6490   38.2900 C.3   125  LEU125      0.0311
     12  CG       -22.7910   42.8120   38.6970 C.3   125  LEU125      0.0022
     13  CD1      -22.5560   43.3370   40.1180 C.3   125  LEU125      0.0001
     14  CD2      -22.1530   41.4510   38.5750 C.3   125  LEU125      0.0001
     15  N        -25.9200   45.1170   39.3080 N.am  126  ALA126     -0.1963
     16  CA       -26.1720   46.2030   40.2270 C.3   126  ALA126      0.1728
     17  C        -27.1220   45.6750   41.2920 C.2   126  ALA126      0.2616
     18  O        -27.9010   44.7500   41.0590 O.2   126  ALA126     -0.2715
     19  CB       -26.8100   47.3860   39.4840 C.3   126  ALA126      0.0334
     20  N        -27.0440   46.2560   42.4710 N.am  127  ASN127     -0.1958
     21  CA       -27.9990   45.9620   43.5100 C.3   127  ASN127      0.1819
     22  C        -27.8800   47.0340   44.5920 C.2   127  ASN127      0.2621
     23  O        -26.7810   47.3320   45.0280 O.2   127  ASN127     -0.2715
     24  CB       -27.7680   44.5460   44.0820 C.3   127  ASN127      0.1195
     25  CG       -28.7230   44.2140   45.2000 C.2   127  ASN127      0.2630
     26  OD1      -28.3830   43.4770   46.1120 O.2   127  ASN127     -0.2716
     27  ND2      -29.9080   44.8020   45.1600 N.am  127  ASN127     -0.0877
     28  N        -29.0110   47.6240   44.9820 N.am  128  GLY128     -0.1954
     29  CA       -29.0690   48.5940   46.0890 C.3   128  GLY128      0.1869
     30  C        -30.3450   48.3950   46.8800 C.2   128  GLY128      0.2309
     31  O        -31.4190   48.7750   46.4050 O.2   128  GLY128     -0.2863
     32  N        -33.0960   51.2890   47.0730 N.3   131  VAL131     -0.1245
     33  CA       -33.3320   52.0170   45.8380 C.3   131  VAL131      0.1561
     34  C        -34.6660   52.8260   45.8150 C.2   131  VAL131      0.2260
     35  O        -34.7470   53.8720   45.1950 O.2   131  VAL131     -0.2867
     36  CB       -33.2620   51.0490   44.6400 C.3   131  VAL131      0.0252
     37  CG1      -34.5240   50.1790   44.5760 C.3   131  VAL131      0.0019
     38  CG2      -33.0530   51.8250   43.3180 C.3   131  VAL131      0.0019
     39  N        -24.0760   51.9700   33.2670 N.3   175  SER175     -0.1202
     40  CA       -24.5360   53.0170   34.1570 C.3   175  SER175      0.2020
     41  C        -25.9150   53.5240   33.6980 C.2   175  SER175      0.2618
     42  O        -26.5040   53.0580   32.7160 O.2   175  SER175     -0.2717
     43  CB       -23.5130   54.1700   34.1950 C.3   175  SER175      0.2103
     44  OG       -24.0190   55.3130   34.8730 O.3   175  SER175     -0.2182
     45  N        -26.4160   54.4950   34.4390 N.am  176  TYR176     -0.1975
     46  CA       -27.6100   55.1990   34.0980 C.3   176  TYR176      0.1639
     47  C        -27.3330   56.7000   34.2860 C.2   176  TYR176      0.2290
     48  O        -26.5670   57.0750   35.1370 O.2   176  TYR176     -0.2864
     49  CB       -28.7580   54.6860   34.9850 C.3   176  TYR176      0.0560
     50  CG       -30.0640   55.3910   34.7660 C.ar  176  TYR176     -0.0198
     51  CD1      -30.5770   55.5450   33.4870 C.ar  176  TYR176     -0.0009
     52  CD2      -30.7780   55.9380   35.8410 C.ar  176  TYR176     -0.0009
     53  CE1      -31.7890   56.2240   33.2610 C.ar  176  TYR176      0.0417
     54  CE2      -32.0180   56.6370   35.6250 C.ar  176  TYR176      0.0417
     55  CZ       -32.5060   56.7590   34.3290 C.ar  176  TYR176      0.1957
     56  OH       -33.6830   57.4170   34.0810 O.3   176  TYR176     -0.2866
     57  N        -34.7540   57.2610   41.4250 N.3   186  TYR186     -0.1241
     58  CA       -33.5190   56.4700   41.3670 C.3   186  TYR186      0.1605
     59  C        -32.7360   56.7350   42.6550 C.2   186  TYR186      0.2264
     60  O        -31.8460   57.6060   42.7370 O.2   186  TYR186     -0.2867
     61  CB       -32.7160   56.7620   40.0930 C.3   186  TYR186      0.0534
     62  CG       -31.6650   55.7130   39.7620 C.ar  186  TYR186     -0.0201
     63  CD1      -32.0270   54.4410   39.3410 C.ar  186  TYR186     -0.0009
     64  CD2      -30.2930   56.0020   39.8510 C.ar  186  TYR186     -0.0009
     65  CE1      -31.0590   53.4700   39.0160 C.ar  186  TYR186      0.0417
     66  CE2      -29.3230   55.0620   39.5150 C.ar  186  TYR186      0.0417
     67  CZ       -29.7090   53.7890   39.1040 C.ar  186  TYR186      0.1957
     68  OH       -28.7670   52.8390   38.7870 O.3   186  TYR186     -0.2866
     69  N        -28.0470   54.4880   44.5520 N.3   190  MET190     -0.1245
     70  CA       -27.7230   53.9930   43.2130 C.3   190  MET190      0.1570
     71  C        -27.1470   55.1370   42.3550 C.2   190  MET190      0.2261
     72  O        -26.1470   54.9440   41.6810 O.2   190  MET190     -0.2867
     73  CB       -28.9560   53.4470   42.4810 C.3   190  MET190      0.0387
     74  CG       -29.4830   52.0670   42.8950 C.3   190  MET190      0.0595
     75  SD       -28.1990   50.8280   43.0010 S.3   190  MET190     -0.1393
     76  CE       -27.5580   50.7600   41.3410 C.3   190  MET190      0.0692
     77  N        -23.4150   54.8360   40.7100 N.3   194  LYS194     -0.1245
     78  CA       -23.2010   54.8870   39.2560 C.3   194  LYS194      0.1561
     79  C        -22.1990   56.0060   38.8890 C.2   194  LYS194      0.2260
     80  O        -21.4710   55.9000   37.9250 O.2   194  LYS194     -0.2867
     81  CB       -24.5320   55.0650   38.5080 C.3   194  LYS194      0.0271
     82  CG       -25.4850   53.8690   38.6070 C.3   194  LYS194      0.0035
     83  CD       -24.9440   52.6370   37.8550 C.3   194  LYS194      0.0206
     84  CE       -25.7300   51.3530   38.1010 C.3   194  LYS194      0.1093
     85  NZ       -25.2160   50.2420   37.2270 N.3   194  LYS194     -0.1314
     86  N        -30.3300   53.7810   28.6170 N.3   222  GLY222     -0.1210
     87  CA       -31.6850   54.2550   28.8830 C.3   222  GLY222      0.1940
     88  C        -32.5480   53.1650   29.4890 C.2   222  GLY222      0.2454
     89  O        -32.0920   52.0310   29.7020 O.2   222  GLY222     -0.2732
     90  N        -33.8180   53.4980   29.7730 N.am  223  PRO223     -0.2717
     91  CA       -34.6980   52.5900   30.5150 C.3   223  PRO223      0.1535
     92  C        -35.0070   51.3080   29.7730 C.2   223  PRO223      0.2598
     93  O        -35.2830   51.3400   28.5800 O.2   223  PRO223     -0.2715
     94  CB       -35.9680   53.4060   30.6790 C.3   223  PRO223      0.0310
     95  CG       -35.5780   54.8550   30.4140 C.3   223  PRO223      0.0237
     96  CD       -34.5060   54.7630   29.4210 C.3   223  PRO223      0.0939
     97  N        -34.9230   50.1840   30.4710 N.am  224  LEU224     -0.1978
     98  CA       -35.4210   48.9170   29.9420 C.3   224  LEU224      0.1596
     99  C        -36.0930   48.0690   31.0310 C.2   224  LEU224      0.2287
    100  O        -35.5350   47.8740   32.1240 O.2   224  LEU224     -0.2864
    101  CB       -34.3150   48.1250   29.2650 C.3   224  LEU224      0.0297
    102  CG       -34.7140   46.7030   28.8260 C.3   224  LEU224      0.0022
    103  CD1      -35.1830   46.6640   27.3400 C.3   224  LEU224      0.0001
    104  CD2      -33.5600   45.7310   29.0850 C.3   224  LEU224      0.0001
    105  N        -36.2370   45.2390   32.3940 N.3   226  SER226     -0.1217
    106  CA       -35.5750   43.9860   32.7510 C.3   226  SER226      0.1889
    107  C        -36.1880   43.5100   34.0440 C.2   226  SER226      0.2288
    108  O        -36.9990   44.2180   34.6600 O.2   226  SER226     -0.2866
    109  CB       -34.0860   44.2250   33.0020 C.3   226  SER226      0.2089
    110  OG       -33.9130   45.2870   33.9360 O.3   226  SER226     -0.2183
    111  N        -34.7440   43.1670   37.0300 N.3   228  ALA228     -0.1231
    112  CA       -34.3640   44.1230   38.0790 C.3   228  ALA228      0.1694
    113  C        -35.0950   45.4750   38.0300 C.2   228  ALA228      0.2591
    114  O        -35.4880   45.9920   39.0670 O.2   228  ALA228     -0.2718
    115  CB       -32.8670   44.3400   38.0860 C.3   228  ALA228      0.0304
    116  N        -35.2790   46.0510   36.8530 N.am  229  ALA229     -0.1980
    117  CA       -36.0660   47.2920   36.7360 C.3   229  ALA229      0.1597
    118  C        -37.5400   47.1270   37.1980 C.2   229  ALA229      0.2287
    119  O        -38.1320   48.0410   37.8050 O.2   229  ALA229     -0.2864
    120  CB       -36.0160   47.8330   35.2930 C.3   229  ALA229      0.0319
    121  N        -38.2020   47.5390   40.9220 N.3   232  ILE232     -0.1245
    122  CA       -38.1190   48.8600   41.5450 C.3   232  ILE232      0.1561
    123  C        -39.4980   49.4380   41.7620 C.2   232  ILE232      0.2260
    124  O        -40.3230   49.4830   40.8490 O.2   232  ILE232     -0.2867
    125  CB       -37.3240   49.8950   40.7050 C.3   232  ILE232      0.0252
    126  CG1      -35.8750   49.4340   40.4480 C.3   232  ILE232      0.0019
    127  CG2      -37.3350   51.2600   41.3990 C.3   232  ILE232      0.0019
    128  CD1      -35.1300   50.2450   39.3630 C.3   232  ILE232      0.0001
    129  N        -41.8070   52.6580   38.5870 N.3   240  PHE240     -0.1227
    130  CA       -40.7570   53.6430   38.3060 C.3   240  PHE240      0.1736
    131  C        -40.3180   53.5340   36.8690 C.2   240  PHE240      0.2595
    132  O        -40.2160   54.5430   36.1660 O.2   240  PHE240     -0.2718
    133  CB       -39.5280   53.4150   39.1980 C.3   240  PHE240      0.0547
    134  CG       -38.2330   54.0490   38.6520 C.ar  240  PHE240     -0.0202
    135  CD1      -38.0120   55.4260   38.7440 C.ar  240  PHE240     -0.0042
    136  CD2      -37.2600   53.2670   38.0470 C.ar  240  PHE240     -0.0042
    137  CE1      -36.8550   56.0070   38.2380 C.ar  240  PHE240     -0.0003
    138  CE2      -36.0960   53.8490   37.5430 C.ar  240  PHE240     -0.0003
    139  CZ       -35.8960   55.2190   37.6350 C.ar  240  PHE240     -0.0000
    140  N        -40.0680   52.2940   36.4510 N.am  241  ILE241     -0.1980
    141  CA       -39.5520   51.9960   35.1190 C.3   241  ILE241      0.1595
    142  C        -40.5230   52.2620   33.9750 C.2   241  ILE241      0.2287
    143  O        -40.1020   52.7160   32.9050 O.2   241  ILE241     -0.2864
    144  CB       -39.0560   50.5220   35.0090 C.3   241  ILE241      0.0276
    145  CG1      -38.1320   50.3660   33.7900 C.3   241  ILE241      0.0022
    146  CG2      -40.2240   49.5180   34.9800 C.3   241  ILE241      0.0022
    147  CD1      -36.8210   51.1570   33.9200 C.3   241  ILE241      0.0001
    148  N        -40.2640   55.7170   33.3580 N.3   244  ALA244     -0.1245
    149  CA       -39.0030   56.0740   32.7310 C.3   244  ALA244      0.1562
    150  C        -39.1200   55.8870   31.2150 C.2   244  ALA244      0.2260
    151  O        -38.7410   56.7540   30.4250 O.2   244  ALA244     -0.2867
    152  CB       -37.8810   55.2480   33.3160 C.3   244  ALA244      0.0290
@<TRIPOS>BOND
     1   103   102    1
     2    93    92    2
     3    86    87    1
     4   102   104    1
     5   102   101    1
     6    87    88    1
     7   101    98    1
     8    96    90    1
     9    96    95    1
    10    88    89    2
    11    88    90   am
    12    92    97   am
    13    92    91    1
    14    90    91    1
    15    98    97    1
    16    98    99    1
    17    95    94    1
    18   151   150    2
    19    91    94    1
    20    99   100    2
    21   150   149    1
    22   105   106    1
    23     6     5    1
    24    42    41    2
    25   149   152    1
    26   149   148    1
    27     5     2    1
    28   106   109    1
    29   106   107    1
    30   143   142    2
    31   109   110    1
    32    53    51   ar
    33    53    55   ar
    34    39    40    1
    35    51    50   ar
    36    41    40    1
    37    41    45   am
    38   145   147    1
    39   145   144    1
    40     2     1    1
    41     2     3    1
    42   142   141    1
    43   107   108    2
    44    56    55    1
    45    46    47    1
    46    46    45    1
    47    46    49    1
    48    40    43    1
    49    43    44    1
    50    47    48    2
    51    55    54   ar
    52    50    49    1
    53    50    52   ar
    54   146   144    1
    55   144   141    1
    56     4     3    2
    57   141   140    1
    58     3     7   am
    59   120   117    1
    60    54    52   ar
    61   132   131    2
    62     7     8    1
    63   140   131   am
    64   117   116    1
    65   117   118    1
    66   116   113   am
    67   131   130    1
    68   111   112    1
    69   118   119    2
    70    85    84    1
    71   138   139   ar
    72   138   136   ar
    73     8    11    1
    74     8     9    1
    75   139   137   ar
    76    83    84    1
    77    83    82    1
    78    80    79    2
    79   113   112    1
    80   113   114    2
    81   136   134   ar
    82   112   115    1
    83   137   135   ar
    84    11    12    1
    85   130   129    1
    86   130   133    1
    87    10     9    2
    88     9    15   am
    89    81    82    1
    90    81    78    1
    91    14    12    1
    92   134   135   ar
    93   134   133    1
    94    12    13    1
    95    68    67    1
    96    79    78    1
    97    65    67   ar
    98    65    63   ar
    99    67    66   ar
   100    78    77    1
   101    15    16    1
   102    63    62   ar
   103   128   126    1
   104    19    16    1
   105    66    64   ar
   106    62    64   ar
   107    62    61    1
   108    61    58    1
   109    16    17    1
   110   126   125    1
   111   125   127    1
   112   125   122    1
   113   124   123    2
   114   121   122    1
   115    18    17    2
   116    17    20   am
   117    76    75    1
   118    58    57    1
   119    58    59    1
   120   122   123    1
   121    72    71    2
   122    71    70    1
   123    20    21    1
   124    73    74    1
   125    73    70    1
   126    59    60    2
   127    74    75    1
   128    70    69    1
   129    38    36    1
   130    21    24    1
   131    21    22    1
   132    24    25    1
   133    37    36    1
   134    22    28   am
   135    22    23    2
   136    36    33    1
   137    28    29    1
   138    27    25   am
   139    35    34    2
   140    25    26    2
   141    34    33    1
   142    33    32    1
   143    29    30    1
   144    31    30    2
