@<TRIPOS>MOLECULE
tmp/2o2uA00.pdb
 149 136 0 0 0
SMALL
GASTEIGER

@<TRIPOS>ATOM
      1  N         28.1380    7.1020   35.2060 N.3    25  ILE25      -0.1231
      2  CA        27.6370    6.5920   33.9340 C.3    25  ILE25       0.1696
      3  C         27.5230    7.6660   32.8600 C.2    25  ILE25       0.2631
      4  O         27.3650    7.3390   31.6860 O.2    25  ILE25      -0.2714
      5  CB        26.2810    5.8670   34.0690 C.3    25  ILE25       0.0266
      6  CG1       25.2270    6.8090   34.6490 C.3    25  ILE25       0.0019
      7  CG2       26.4350    4.5570   34.8580 C.3    25  ILE25       0.0020
      8  CD1       23.8920    6.1660   34.8650 C.3    25  ILE25       0.0001
      9  N         27.5990    8.9380   33.2380 N.am   26  GLY26      -0.1732
     10  CA        27.5940    9.9790   32.2180 C.2    26  GLY26       0.1340
     11  C         27.8380   11.4170   32.6270 C.2    26  GLY26       0.2521
     12  O         27.5820   11.7980   33.7790 O.2    26  GLY26      -0.2816
     13  N         26.1830   12.4680   36.6800 N.3    31  VAL31      -0.1245
     14  CA        25.1310   11.4480   36.7820 C.3    31  VAL31       0.1561
     15  C         25.7010   10.1290   37.2890 C.2    31  VAL31       0.2260
     16  O         26.7600    9.7110   36.8480 O.2    31  VAL31      -0.2867
     17  CB        24.4540   11.1770   35.4260 C.3    31  VAL31       0.0252
     18  CG1       23.4070   10.1010   35.5750 C.3    31  VAL31       0.0019
     19  CG2       23.8520   12.4460   34.8310 C.3    31  VAL31       0.0019
     20  N         19.2280    5.9670   38.3130 N.3    44  ALA44      -0.1231
     21  CA        20.2480    6.8990   37.8980 C.3    44  ALA44       0.1694
     22  C         20.0440    8.1330   38.7340 C.2    44  ALA44       0.2592
     23  O         18.8850    8.5060   39.0150 O.2    44  ALA44      -0.2718
     24  CB        20.1120    7.2360   36.4290 C.3    44  ALA44       0.0304
     25  N         21.1490    8.7530   39.1500 N.am   45  ILE45      -0.1966
     26  CA        21.1110    9.9870   39.9520 C.3    45  ILE45       0.1727
     27  C         21.9570   11.0450   39.3070 C.2    45  ILE45       0.2616
     28  O         23.1310   10.8300   39.0300 O.2    45  ILE45      -0.2715
     29  CB        21.6430    9.8030   41.3970 C.3    45  ILE45       0.0290
     30  CG1       20.9160    8.6770   42.1330 C.3    45  ILE45       0.0022
     31  CG2       21.5050   11.1010   42.2170 C.3    45  ILE45       0.0023
     32  CD1       21.7790    7.9670   43.1990 C.3    45  ILE45       0.0001
     33  N         21.3410   12.1760   39.0520 N.am   46  LYS46      -0.1977
     34  CA        22.0010   13.3350   38.5420 C.3    46  LYS46       0.1596
     35  C         21.9390   14.4320   39.5890 C.2    46  LYS46       0.2287
     36  O         20.8630   14.7200   40.1960 O.2    46  LYS46      -0.2864
     37  CB        21.3360   13.8030   37.2600 C.3    46  LYS46       0.0298
     38  CG        21.8390   15.1470   36.7030 C.3    46  LYS46       0.0038
     39  CD        21.3010   15.3020   35.3070 C.3    46  LYS46       0.0206
     40  CE        21.3590   16.7090   34.7790 C.3    46  LYS46       0.1093
     41  NZ        20.4930   16.7520   33.5390 N.3    46  LYS46      -0.1314
     42  N          9.2050   17.5750   34.2970 N.3    68  MET68      -0.1245
     43  CA         9.5550   16.1690   34.5300 C.3    68  MET68       0.1570
     44  C          8.5980   15.4700   35.4830 C.2    68  MET68       0.2261
     45  O          8.3160   14.2720   35.3460 O.2    68  MET68      -0.2867
     46  CB        10.9390   16.1220   35.1030 C.3    68  MET68       0.0387
     47  CG        11.6660   14.8480   34.9430 C.3    68  MET68       0.0595
     48  SD        13.4490   15.2260   34.7720 S.3    68  MET68      -0.1393
     49  CE        13.7310   16.7400   35.7150 C.3    68  MET68       0.0692
     50  N         11.4710   10.8780   30.2290 N.3    77  ILE77      -0.1245
     51  CA        11.9270   10.6460   31.6040 C.3    77  ILE77       0.1561
     52  C         10.8160   10.9880   32.5740 C.2    77  ILE77       0.2260
     53  O         10.0360   11.9090   32.3160 O.2    77  ILE77      -0.2867
     54  CB        12.9670   11.6640   32.0810 C.3    77  ILE77       0.0252
     55  CG1       13.3440   12.6470   30.9870 C.3    77  ILE77       0.0019
     56  CG2       14.0850   10.9870   32.8320 C.3    77  ILE77       0.0019
     57  CD1       12.6770   13.9860   31.1310 C.3    77  ILE77       0.0001
     58  N         10.7750   11.3310   37.0580 N.3    79  LEU79      -0.1245
     59  CA        11.4440   11.2630   38.3290 C.3    79  LEU79       0.1561
     60  C         10.7840   10.2960   39.2890 C.2    79  LEU79       0.2260
     61  O          9.5540   10.2550   39.3920 O.2    79  LEU79      -0.2867
     62  CB        11.3920   12.6460   38.9500 C.3    79  LEU79       0.0270
     63  CG        12.3490   13.6550   38.3380 C.3    79  LEU79       0.0019
     64  CD1       11.7660   15.0390   38.5180 C.3    79  LEU79       0.0001
     65  CD2       13.7000   13.5440   39.0050 C.3    79  LEU79       0.0001
     66  N         18.3090   14.5740   41.1870 N.3    97  LEU97      -0.1301
     67  CA        17.1880   14.0410   40.4370 C.3    97  LEU97       0.1247
     68  C         17.4300   12.5520   40.2600 C.3    97  LEU97       0.2009
     69  O         18.5900   12.1230   39.9070 O.3    97  LEU97      -0.2188
     70  CB        17.1010   14.7340   39.0610 C.3    97  LEU97       0.0217
     71  CG        17.1690   16.2870   39.0030 C.3    97  LEU97       0.0015
     72  CD1       17.0690   16.7710   37.5820 C.3    97  LEU97       0.0000
     73  CD2       16.1080   17.0050   39.8280 C.3    97  LEU97       0.0000
     74  N         15.9980    8.8960   38.5810 N.3    99  MET99      -0.1230
     75  CA        15.1700    8.2510   37.5770 C.3    99  MET99       0.1702
     76  C         15.4500    6.7500   37.4540 C.2    99  MET99       0.2592
     77  O         16.4720    6.2760   37.9230 O.2    99  MET99      -0.2718
     78  CB        15.4040    8.9210   36.2350 C.3    99  MET99       0.0401
     79  CG        16.7900    8.6700   35.6900 C.3    99  MET99       0.0596
     80  SD        16.9500    9.3410   34.0450 S.3    99  MET99      -0.1393
     81  CE        16.1090    8.0980   33.0480 C.3    99  MET99       0.0692
     82  N         14.5250    6.0120   36.8340 N.am  100  GLU100     -0.1979
     83  CA        14.7600    4.5970   36.5090 C.3   100  GLU100      0.1602
     84  C         16.0290    4.4880   35.6950 C.2   100  GLU100      0.2287
     85  O         16.2460    5.2870   34.7790 O.2   100  GLU100     -0.2864
     86  CB        13.6040    4.0250   35.6760 C.3   100  GLU100      0.0415
     87  CG        12.3180    3.8350   36.4550 C.3   100  GLU100      0.1163
     88  CD        12.3880    2.7080   37.4780 C.2   100  GLU100      0.3649
     89  OE1       13.2880    1.8310   37.3660 O.co2 100  GLU100     -0.2457
     90  OE2       11.5100    2.6900   38.3870 O.co2 100  GLU100     -0.2457
     91  N         18.5550    3.5410   32.9980 N.3   102  MET102     -0.1230
     92  CA        18.7250    3.1160   31.6140 C.3   102  MET102      0.1702
     93  C         20.2020    2.6830   31.3480 C.2   102  MET102      0.2592
     94  O         21.1010    2.9930   32.1400 O.2   102  MET102     -0.2718
     95  CB        18.3220    4.2570   30.6980 C.3   102  MET102      0.0401
     96  CG        17.0020    4.8910   31.0830 C.3   102  MET102      0.0596
     97  SD        15.6420    3.8280   30.6280 S.3   102  MET102     -0.1393
     98  CE        15.6470    4.1140   28.8530 C.3   102  MET102      0.0692
     99  N         20.4450    1.9980   30.2290 N.am  103  ASP103     -0.1960
    100  CA        21.6880    1.2690   30.0610 C.3   103  ASP103      0.1840
    101  C         22.6660    1.9200   29.1450 C.2   103  ASP103      0.2622
    102  O         23.8580    1.6730   29.2610 O.2   103  ASP103     -0.2715
    103  CB        21.3960   -0.1370   29.5620 C.3   103  ASP103      0.1450
    104  CG        20.5830   -0.9220   30.5490 C.2   103  ASP103      0.3671
    105  OD1       20.8700   -0.7820   31.7620 O.co2 103  ASP103     -0.2456
    106  OD2       19.6470   -1.6490   30.1260 O.co2 103  ASP103     -0.2456
    107  N         22.1520    2.7500   28.2370 N.am  104  ALA104     -0.1963
    108  CA        22.9770    3.3890   27.2310 C.3   104  ALA104      0.1728
    109  C         22.3740    4.6660   26.6480 C.2   104  ALA104      0.2616
    110  O         21.1430    4.9280   26.7190 O.2   104  ALA104     -0.2715
    111  CB        23.2960    2.3770   26.1020 C.3   104  ALA104      0.0334
    112  N         23.2850    5.4480   26.0760 N.am  105  ASN105     -0.1972
    113  CA        22.9840    6.6580   25.3300 C.3   105  ASN105      0.1688
    114  C         22.6600    6.3350   23.8660 C.2   105  ASN105      0.2292
    115  O         22.9960    5.2600   23.3640 O.2   105  ASN105     -0.2864
    116  CB        24.2310    7.5600   25.3560 C.3   105  ASN105      0.1181
    117  CG        23.8860    9.0180   25.4520 C.2   105  ASN105      0.2629
    118  OD1       24.7280    9.8460   25.7940 O.2   105  ASN105     -0.2716
    119  ND2       22.6060    9.3440   25.2000 N.am  105  ASN105     -0.0877
    120  N         25.7040    5.6620   21.5240 N.3   108  GLN108     -0.1245
    121  CA        26.2210    4.3050   21.5700 C.3   108  GLN108      0.1566
    122  C         25.5180    3.3750   20.6240 C.2   108  GLN108      0.2260
    123  O         26.1580    2.5330   20.0190 O.2   108  GLN108     -0.2867
    124  CB        26.1250    3.7680   22.9800 C.3   108  GLN108      0.0367
    125  CG        26.3850    4.8450   24.0360 C.3   108  GLN108      0.0905
    126  CD        26.5040    4.2780   25.4370 C.2   108  GLN108      0.2608
    127  OE1       26.3060    4.9950   26.4340 O.2   108  GLN108     -0.2717
    128  NE2       26.8470    2.9780   25.5260 N.am  108  GLN108     -0.0878
    129  N         22.5860   12.3710   22.6420 N.3   146  SER146     -0.1217
    130  CA        23.0850   12.3940   24.0060 C.3   146  SER146      0.1889
    131  C         22.0020   12.6580   25.0490 C.2   146  SER146      0.2288
    132  O         22.1510   12.2170   26.1820 O.2   146  SER146     -0.2866
    133  CB        24.2480   13.3610   24.1700 C.3   146  SER146      0.2089
    134  OG        23.8950   14.6520   23.7200 O.3   146  SER146     -0.2183
    135  N         18.0500    8.3150   25.9710 N.3   149  VAL149     -0.1245
    136  CA        18.5400    7.0590   26.5500 C.3   149  VAL149      0.1561
    137  C         17.7520    5.8250   26.1590 C.2   149  VAL149      0.2260
    138  O         16.5810    5.8980   25.7510 O.2   149  VAL149     -0.2867
    139  CB        18.7430    7.0850   28.0960 C.3   149  VAL149      0.0252
    140  CG1       20.0640    7.7680   28.4420 C.3   149  VAL149      0.0019
    141  CG2       17.5350    7.7050   28.8420 C.3   149  VAL149      0.0019
    142  N         15.3650   12.6040   27.5370 N.3   159  LEU159     -0.1245
    143  CA        15.9070   13.0140   28.8440 C.3   159  LEU159      0.1561
    144  C         15.6540   14.4420   29.2630 C.2   159  LEU159      0.2260
    145  O         15.8180   14.7610   30.4380 O.2   159  LEU159     -0.2867
    146  CB        17.4340   12.8580   28.8600 C.3   159  LEU159      0.0270
    147  CG        18.2070   11.5700   29.1240 C.3   159  LEU159      0.0019
    148  CD1       19.7130   11.9290   29.1440 C.3   159  LEU159      0.0001
    149  CD2       17.8310   10.9480   30.4300 C.3   159  LEU159      0.0001
@<TRIPOS>BOND
     1   123   122    2
     2   122   121    1
     3   120   121    1
     4   121   124    1
     5   129   130    1
     6   124   125    1
     7   115   114    2
     8   134   133    1
     9   114   113    1
    10   130   133    1
    11   130   131    1
    12   125   126    1
    13   131   132    2
    14   119   117   am
    15   113   116    1
    16   113   112    1
    17   116   117    1
    18   126   128   am
    19   126   127    2
    20   117   118    2
    21   138   137    2
    22   135   136    1
    23   112   109   am
    24   111   108    1
    25   137   136    1
    26   136   139    1
    27   109   110    2
    28   109   108    1
    29   108   107    1
    30   142   143    1
    31   139   140    1
    32   139   141    1
    33   107   101   am
    34   143   146    1
    35   143   144    1
    36    98    97    1
    37   146   147    1
    38   147   148    1
    39   147   149    1
    40   101   102    2
    41   101   100    1
    42   144   145    2
    43   103   100    1
    44   103   104    1
    45   100    99    1
    46   106   104   ar
    47    99    93   am
    48    50    51    1
    49   104   105   ar
    50    97    96    1
    51    95    96    1
    52    95    92    1
    53    55    57    1
    54    55    54    1
    55    93    92    1
    56    93    94    2
    57    51    54    1
    58    51    52    1
    59    92    91    1
    60     4     3    2
    61    54    56    1
    62    10    11    1
    63    10     9    2
    64    53    52    2
    65    11    12    2
    66     3     9    1
    67     3     2    1
    68    81    80    1
    69    41    40    1
    70     2     5    1
    71     2     1    1
    72    80    79    1
    73     5     6    1
    74     5     7    1
    75    42    43    1
    76    43    46    1
    77    43    44    1
    78     6     8    1
    79    48    47    1
    80    48    49    1
    81    85    84    2
    82    40    39    1
    83    19    17    1
    84    47    46    1
    85    39    38    1
    86    45    44    2
    87    17    18    1
    88    17    14    1
    89    86    87    1
    90    86    83    1
    91    79    78    1
    92    84    83    1
    93    78    75    1
    94    24    21    1
    95    87    88    1
    96    83    82    1
    97    13    14    1
    98    38    37    1
    99    14    15    1
   100    82    76   am
   101    16    15    2
   102    58    59    1
   103    37    34    1
   104    89    88   ar
   105    76    75    1
   106    76    77    2
   107    88    90   ar
   108    75    74    1
   109    72    71    1
   110    21    20    1
   111    21    22    1
   112    59    62    1
   113    59    60    1
   114    63    64    1
   115    63    62    1
   116    63    65    1
   117    34    33    1
   118    34    35    1
   119    22    23    2
   120    22    25   am
   121    71    70    1
   122    71    73    1
   123    28    27    2
   124    33    27   am
   125    70    67    1
   126    25    26    1
   127    60    61    2
   128    27    26    1
   129    35    36    2
   130    69    68    1
   131    26    29    1
   132    68    67    1
   133    67    66    1
   134    29    30    1
   135    29    31    1
   136    30    32    1
