@<TRIPOS>MOLECULE
tmp/2o2yC01.pdb
 159 151 0 0 0
SMALL
GASTEIGER

@<TRIPOS>ATOM
      1  N          9.0300   16.7060   36.7760 N.3   120  SER120     -0.1202
      2  CA         9.3130   17.4870   35.5620 C.3   120  SER120      0.2020
      3  C         10.1890   18.7130   35.8830 C.2   120  SER120      0.2619
      4  O          9.8260   19.8520   35.5750 O.2   120  SER120     -0.2717
      5  CB         7.9940   17.9340   34.9100 C.3   120  SER120      0.2103
      6  OG         8.2100   18.6550   33.7050 O.3   120  SER120     -0.2182
      7  N         11.3460   18.4610   36.4930 N.am  121  LEU121     -0.1965
      8  CA        12.1600   19.5240   37.0800 C.3   121  LEU121      0.1728
      9  C         13.6390   19.1730   37.1080 C.2   121  LEU121      0.2616
     10  O         14.0160   17.9980   37.2240 O.2   121  LEU121     -0.2715
     11  CB        11.6800   19.8180   38.5050 C.3   121  LEU121      0.0311
     12  CG        12.0000   18.8290   39.6350 C.3   121  LEU121      0.0022
     13  CD1       13.2580   19.2180   40.4360 C.3   121  LEU121      0.0001
     14  CD2       10.8220   18.7390   40.5870 C.3   121  LEU121      0.0001
     15  N         14.4670   20.2070   37.0120 N.am  122  ALA122     -0.1963
     16  CA        15.9090   20.0700   37.1150 C.3   122  ALA122      0.1728
     17  C         16.5450   21.4170   37.4410 C.2   122  ALA122      0.2616
     18  O         16.0030   22.4440   37.1150 O.2   122  ALA122     -0.2715
     19  CB        16.4890   19.4970   35.7940 C.3   122  ALA122      0.0334
     20  N         17.6940   21.4020   38.1000 N.am  123  ASN123     -0.1958
     21  CA        18.4730   22.6150   38.3060 C.3   123  ASN123      0.1819
     22  C         19.9460   22.2700   38.4930 C.2   123  ASN123      0.2621
     23  O         20.3000   21.1780   38.9150 O.2   123  ASN123     -0.2715
     24  CB        17.9350   23.4010   39.5130 C.3   123  ASN123      0.1195
     25  CG        17.8730   24.9170   39.2720 C.2   123  ASN123      0.2630
     26  OD1       17.0050   25.6020   39.8250 O.2   123  ASN123     -0.2716
     27  ND2       18.7860   25.4420   38.4640 N.am  123  ASN123     -0.0877
     28  N         20.8060   23.2090   38.1540 N.am  124  ALA124     -0.1977
     29  CA        22.2390   23.0060   38.2150 C.3   124  ALA124      0.1597
     30  C         22.8540   24.3770   38.0260 C.2   124  ALA124      0.2287
     31  O         22.7350   24.9470   36.9400 O.2   124  ALA124     -0.2864
     32  CB        22.6860   22.0790   37.1200 C.3   124  ALA124      0.0319
     33  N         25.5900   24.8280   35.1640 N.3   127  VAL127     -0.1245
     34  CA        25.2270   24.3260   33.8370 C.3   127  VAL127      0.1561
     35  C         25.9900   25.0310   32.7100 C.2   127  VAL127      0.2260
     36  O         26.3330   24.4100   31.7090 O.2   127  VAL127     -0.2867
     37  CB        23.7030   24.4100   33.5840 C.3   127  VAL127      0.0252
     38  CG1       23.1860   25.8600   33.6640 C.3   127  VAL127      0.0019
     39  CG2       23.3480   23.7560   32.2340 C.3   127  VAL127      0.0019
     40  N         14.0870   13.0000   31.2110 N.3   171  THR171     -0.1203
     41  CA        15.5460   12.9800   31.0600 C.3   171  THR171      0.1994
     42  C         15.9550   13.5000   29.6890 C.2   171  THR171      0.2617
     43  O         15.1130   13.8660   28.8770 O.2   171  THR171     -0.2717
     44  CB        16.1200   11.5570   31.3030 C.3   171  THR171      0.1784
     45  OG1       17.5520   11.6170   31.3830 O.3   171  THR171     -0.2211
     46  CG2       15.7030   10.5820   30.1940 C.3   171  THR171      0.0376
     47  N         17.2540   13.5280   29.4460 N.am  172  TYR172     -0.1975
     48  CA        17.7990   13.9790   28.1750 C.3   172  TYR172      0.1639
     49  C         18.9550   13.0910   27.7200 C.2   172  TYR172      0.2290
     50  O         19.7950   12.6960   28.5350 O.2   172  TYR172     -0.2864
     51  CB        18.2890   15.4270   28.2910 C.3   172  TYR172      0.0560
     52  CG        18.7640   16.0060   26.9840 C.ar  172  TYR172     -0.0198
     53  CD1       17.9720   15.9240   25.8340 C.ar  172  TYR172     -0.0009
     54  CD2       19.9840   16.6420   26.8880 C.ar  172  TYR172     -0.0009
     55  CE1       18.3980   16.4450   24.6350 C.ar  172  TYR172      0.0417
     56  CE2       20.4190   17.1750   25.6860 C.ar  172  TYR172      0.0417
     57  CZ        19.6280   17.0730   24.5620 C.ar  172  TYR172      0.1957
     58  OH        20.0630   17.6090   23.3700 O.3   172  TYR172     -0.2866
     59  N         25.7580   20.9950   27.6720 N.3   182  TYR182     -0.1241
     60  CA        24.9540   20.4360   28.7590 C.3   182  TYR182      0.1605
     61  C         25.8770   20.2500   29.9550 C.2   182  TYR182      0.2264
     62  O         26.1930   19.1270   30.3390 O.2   182  TYR182     -0.2867
     63  CB        24.3330   19.1130   28.3390 C.3   182  TYR182      0.0534
     64  CG        23.0560   18.7330   29.0500 C.ar  182  TYR182     -0.0201
     65  CD1       22.9860   17.5870   29.8480 C.ar  182  TYR182     -0.0009
     66  CD2       21.9020   19.4920   28.9020 C.ar  182  TYR182     -0.0009
     67  CE1       21.7980   17.2170   30.4700 C.ar  182  TYR182      0.0417
     68  CE2       20.7120   19.1330   29.5320 C.ar  182  TYR182      0.0417
     69  CZ        20.6650   17.9960   30.3100 C.ar  182  TYR182      0.1957
     70  OH        19.4880   17.6370   30.9330 O.3   182  TYR182     -0.2866
     71  N         24.7430   18.2740   34.7720 N.3   186  MET186     -0.1245
     72  CA        23.4060   17.9100   34.3200 C.3   186  MET186      0.1570
     73  C         23.4170   16.5740   33.5850 C.2   186  MET186      0.2261
     74  O         22.5200   15.7710   33.7790 O.2   186  MET186     -0.2867
     75  CB        22.8290   19.0020   33.4180 C.3   186  MET186      0.0387
     76  CG        22.4830   20.2910   34.1460 C.3   186  MET186      0.0595
     77  SD        21.1970   20.0650   35.3880 S.3   186  MET186     -0.1393
     78  CE        19.8860   19.3560   34.3930 C.3   186  MET186      0.0692
     79  N         21.2900   13.2930   34.7850 N.3   190  LYS190     -0.1245
     80  CA        20.3630   12.5000   33.9750 C.3   190  LYS190      0.1561
     81  C         20.8130   11.0290   33.8900 C.2   190  LYS190      0.2260
     82  O         19.9870   10.1270   33.9440 O.2   190  LYS190     -0.2867
     83  CB        20.1760   13.1120   32.5900 C.3   190  LYS190      0.0271
     84  CG        19.5880   14.5320   32.6080 C.3   190  LYS190      0.0035
     85  CD        18.2410   14.5980   33.3520 C.3   190  LYS190      0.0206
     86  CE        17.5200   15.9070   33.0760 C.3   190  LYS190      0.1093
     87  NZ        16.1240   15.9440   33.6700 N.3   190  LYS190     -0.1314
     88  N         13.1980   15.1210   23.3350 N.3   218  GLY218     -0.1210
     89  CA        13.9070   15.9740   22.3950 C.3   218  GLY218      0.1940
     90  C         13.8030   17.4250   22.8530 C.2   218  GLY218      0.2454
     91  O         13.2220   17.7050   23.9000 O.2   218  GLY218     -0.2732
     92  N         14.3990   18.3490   22.0850 N.am  219  PRO219     -0.2717
     93  CA        14.4730   19.7430   22.4680 C.3   219  PRO219      0.1535
     94  C         13.1480   20.5210   22.4270 C.2   219  PRO219      0.2598
     95  O         12.3390   20.3550   21.5110 O.2   219  PRO219     -0.2715
     96  CB        15.4800   20.3200   21.4610 C.3   219  PRO219      0.0310
     97  CG        15.3850   19.4630   20.2900 C.3   219  PRO219      0.0237
     98  CD        15.1010   18.0950   20.8150 C.3   219  PRO219      0.0939
     99  N         12.9550   21.3740   23.4290 N.am  220  LEU220     -0.1978
    100  CA        11.8090   22.2760   23.5250 C.3   220  LEU220      0.1596
    101  C         12.3320   23.6130   24.0660 C.2   220  LEU220      0.2287
    102  O         13.1400   23.6300   24.9950 O.2   220  LEU220     -0.2864
    103  CB        10.7630   21.6930   24.4810 C.3   220  LEU220      0.0297
    104  CG         9.4630   22.4510   24.7990 C.3   220  LEU220      0.0022
    105  CD1        8.4260   22.2960   23.6860 C.3   220  LEU220      0.0001
    106  CD2        8.8710   21.9550   26.1020 C.3   220  LEU220      0.0001
    107  N         11.8490   25.8030   26.2960 N.3   222  SER222     -0.1217
    108  CA        11.3150   26.1120   27.5990 C.3   222  SER222      0.1889
    109  C         12.1480   27.2080   28.2370 C.2   222  SER222      0.2288
    110  O         13.2410   27.5270   27.7660 O.2   222  SER222     -0.2866
    111  CB        11.3670   24.8700   28.4850 C.3   222  SER222      0.2089
    112  OG        12.7070   24.4150   28.6060 O.3   222  SER222     -0.2183
    113  N         13.8380   27.0310   30.9900 N.3   224  ALA224     -0.1231
    114  CA        15.1150   26.4690   31.4330 C.3   224  ALA224      0.1694
    115  C         16.0840   26.2720   30.2800 C.2   224  ALA224      0.2591
    116  O         17.2690   26.6350   30.3830 O.2   224  ALA224     -0.2718
    117  CB        14.8890   25.1700   32.1230 C.3   224  ALA224      0.0304
    118  N         15.5820   25.6920   29.1860 N.am  225  ALA225     -0.1980
    119  CA        16.3910   25.4250   27.9910 C.3   225  ALA225      0.1597
    120  C         17.1080   26.6730   27.4950 C.2   225  ALA225      0.2287
    121  O         18.2780   26.6260   27.1230 O.2   225  ALA225     -0.2864
    122  CB        15.5300   24.8570   26.8940 C.3   225  ALA225      0.0319
    123  N         18.0890   29.0530   29.2860 N.3   227  ALA227     -0.1231
    124  CA        19.1290   29.3620   30.2770 C.3   227  ALA227      0.1694
    125  C         20.4500   28.5790   30.1480 C.2   227  ALA227      0.2591
    126  O         21.4320   28.8650   30.8470 O.2   227  ALA227     -0.2718
    127  CB        18.3950   29.2840   31.6130 C.3   227  ALA227      0.0304
    128  N         20.4880   27.5920   29.2640 N.am  228  ILE228     -0.1980
    129  CA        21.7360   26.8740   28.9970 C.3   228  ILE228      0.1595
    130  C         22.6690   27.7710   28.1640 C.2   228  ILE228      0.2287
    131  O         22.2050   28.6380   27.3910 O.2   228  ILE228     -0.2864
    132  CB        21.4860   25.5460   28.2560 C.3   228  ILE228      0.0276
    133  CG1       20.4900   24.6700   29.0260 C.3   228  ILE228      0.0022
    134  CG2       22.7910   24.7800   28.0520 C.3   228  ILE228      0.0022
    135  CD1       20.0070   23.4750   28.2310 C.3   228  ILE228      0.0001
    136  N         22.3140   27.4060   22.8170 N.3   232  PHE232     -0.1227
    137  CA        22.2550   25.9470   22.8910 C.3   232  PHE232      0.1736
    138  C         20.9450   25.3970   22.2990 C.2   232  PHE232      0.2595
    139  O         20.9500   24.5730   21.3710 O.2   232  PHE232     -0.2718
    140  CB        22.4040   25.4840   24.3450 C.3   232  PHE232      0.0547
    141  CG        22.1900   24.0210   24.5220 C.ar  232  PHE232     -0.0202
    142  CD1       23.1750   23.1200   24.1550 C.ar  232  PHE232     -0.0042
    143  CD2       20.9910   23.5330   25.0140 C.ar  232  PHE232     -0.0042
    144  CE1       22.9680   21.7570   24.3050 C.ar  232  PHE232     -0.0003
    145  CE2       20.7810   22.1600   25.1650 C.ar  232  PHE232     -0.0003
    146  CZ        21.7640   21.2790   24.8090 C.ar  232  PHE232     -0.0000
    147  N         19.8280   25.8880   22.8290 N.am  233  ILE233     -0.1980
    148  CA        18.5150   25.3260   22.5300 C.3   233  ILE233      0.1595
    149  C         18.0780   25.5720   21.0870 C.2   233  ILE233      0.2287
    150  O         17.4120   24.7340   20.4880 O.2   233  ILE233     -0.2864
    151  CB        17.4440   25.8330   23.5350 C.3   233  ILE233      0.0276
    152  CG1       16.1530   25.0310   23.4020 C.3   233  ILE233      0.0022
    153  CG2       17.1770   27.3380   23.3750 C.3   233  ILE233      0.0022
    154  CD1       16.3310   23.5790   23.7220 C.3   233  ILE233      0.0001
    155  N         19.8330   23.0310   18.8930 N.3   236  ALA236     -0.1245
    156  CA        19.2940   21.6940   19.1510 C.3   236  ALA236      0.1562
    157  C         17.9980   21.4600   18.3900 C.2   236  ALA236      0.2260
    158  O         17.8360   20.4410   17.7360 O.2   236  ALA236     -0.2867
    159  CB        19.0830   21.4750   20.6510 C.3   236  ALA236      0.0290
@<TRIPOS>BOND
     1   158   157    2
     2   157   156    1
     3   155   156    1
     4   156   159    1
     5    97    98    1
     6    97    96    1
     7   150   149    2
     8    98    92    1
     9   149   148    1
    10   139   138    2
    11    96    93    1
    12    95    94    2
    13    92    93    1
    14    92    90   am
    15   138   147   am
    16   138   137    1
    17    89    90    1
    18    89    88    1
    19    94    93    1
    20    94    99   am
    21   148   147    1
    22   148   151    1
    23   136   137    1
    24    90    91    2
    25   137   140    1
    26    58    57    1
    27   153   151    1
    28   152   151    1
    29   152   154    1
    30    99   100    1
    31   100   101    1
    32   100   103    1
    33   105   104    1
    34   101   102    2
    35   142   144   ar
    36   142   141   ar
    37   144   146   ar
    38   140   141    1
    39   103   104    1
    40   141   143   ar
    41    57    55   ar
    42    57    56   ar
    43    55    53   ar
    44   104   106    1
    45   146   145   ar
    46   143   145   ar
    47    56    54   ar
    48    53    52   ar
    49   107   108    1
    50    54    52   ar
    51   122   119    1
    52    52    51    1
    53   121   120    2
    54   131   130    2
    55   120   119    1
    56   108   109    1
    57   108   111    1
    58    59    60    1
    59    49    48    1
    60    49    50    2
    61   110   109    2
    62   119   118    1
    63   134   132    1
    64   130   129    1
    65    48    51    1
    66    48    47    1
    67   135   133    1
    68   132   129    1
    69   132   133    1
    70    63    60    1
    71    63    64    1
    72   111   112    1
    73    60    61    1
    74    43    42    2
    75    66    64   ar
    76    66    68   ar
    77   129   128    1
    78    64    65   ar
    79   118   115   am
    80   128   125   am
    81   123   124    1
    82    47    42   am
    83    68    69   ar
    84    42    41    1
    85    65    67   ar
    86    61    62    2
    87   125   124    1
    88   125   126    2
    89    46    44    1
    90   124   127    1
    91   115   116    2
    92   115   114    1
    93    69    67   ar
    94    69    70    1
    95   113   114    1
    96    41    40    1
    97    41    44    1
    98    44    45    1
    99   114   117    1
   100    36    35    2
   101    39    37    1
   102    83    84    1
   103    83    80    1
   104    84    85    1
   105    35    34    1
   106    86    85    1
   107    86    87    1
   108    75    76    1
   109    75    72    1
   110    37    38    1
   111    37    34    1
   112    73    74    2
   113    73    72    1
   114     6     5    1
   115    34    33    1
   116    81    82    2
   117    81    80    1
   118    80    79    1
   119    76    77    1
   120    72    71    1
   121    78    77    1
   122     5     2    1
   123     2     3    1
   124     2     1    1
   125     4     3    2
   126    19    16    1
   127     3     7   am
   128     7     8    1
   129    31    30    2
   130    15     9   am
   131    15    16    1
   132     8     9    1
   133     8    11    1
   134     9    10    2
   135    16    17    1
   136    18    17    2
   137    32    29    1
   138    17    20   am
   139    30    29    1
   140    20    21    1
   141    28    29    1
   142    28    22   am
   143    21    22    1
   144    21    24    1
   145    27    25   am
   146    22    23    2
   147    11    12    1
   148    25    24    1
   149    25    26    2
   150    12    13    1
   151    12    14    1
