@<TRIPOS>MOLECULE
tmp/2o2zC00.pdb
 146 139 0 0 0
SMALL
GASTEIGER

@<TRIPOS>ATOM
      1  N         21.2650   39.1980  165.9160 N.3    11  THR11      -0.1203
      2  CA        20.3590   40.2440  166.3460 C.3    11  THR11       0.1994
      3  C         19.6370   39.8170  167.6030 C.2    11  THR11       0.2618
      4  O         19.4070   40.6470  168.4880 O.2    11  THR11      -0.2717
      5  CB        19.3740   40.6990  165.2300 C.3    11  THR11       0.1784
      6  OG1       18.3570   39.7120  165.0560 O.3    11  THR11      -0.2211
      7  CG2       20.1100   40.9530  163.8900 C.3    11  THR11       0.0376
      8  N         19.3130   38.5290  167.6930 N.am   12  GLY12      -0.1956
      9  CA        18.6390   37.9680  168.8660 C.3    12  GLY12       0.1869
     10  C         19.4300   38.1510  170.1480 C.2    12  GLY12       0.2309
     11  O         18.8880   38.5870  171.1740 O.2    12  GLY12      -0.2863
     12  N         19.6400   42.0890  170.9290 N.3    15  VAL15      -0.1245
     13  CA        18.3920   42.5610  171.5260 C.3    15  VAL15       0.1561
     14  C         18.2760   42.1660  173.0140 C.2    15  VAL15       0.2260
     15  O         17.9860   43.0060  173.8740 O.2    15  VAL15      -0.2867
     16  CB        17.1860   42.0070  170.7130 C.3    15  VAL15       0.0252
     17  CG1       15.8540   42.0840  171.5100 C.3    15  VAL15       0.0019
     18  CG2       17.1000   42.7250  169.3460 C.3    15  VAL15       0.0019
     19  N         18.4270   33.7920  172.1320 N.3   179  PRO179     -0.2102
     20  CA        17.7910   33.4240  170.8750 C.3   179  PRO179      0.1504
     21  C         18.7010   33.6550  169.6590 C.2   179  PRO179      0.2576
     22  O         19.6330   34.4640  169.7240 O.2   179  PRO179     -0.2718
     23  CB        16.5890   34.3630  170.8160 C.3   179  PRO179      0.0282
     24  CG        17.0710   35.5910  171.4640 C.3   179  PRO179      0.0208
     25  CD        18.0430   35.1500  172.5540 C.3   179  PRO179      0.0893
     26  N         18.4000   32.9430  168.5710 N.am  180  GLY180     -0.1943
     27  CA        19.1090   33.0620  167.3070 C.3   180  GLY180      0.2014
     28  C         18.7080   31.9270  166.3910 C.2   180  GLY180      0.2639
     29  O         17.9710   31.0340  166.8130 O.2   180  GLY180     -0.2714
     30  N         19.1840   31.9260  165.1490 N.am  181  SER181     -0.1949
     31  CA        18.9880   30.7410  164.2830 C.3   181  SER181      0.1924
     32  C         19.4030   29.4490  164.9750 C.2   181  SER181      0.2314
     33  O         20.4790   29.3820  165.5930 O.2   181  SER181     -0.2863
     34  CB        19.8080   30.8160  163.0080 C.3   181  SER181      0.2116
     35  OG        19.3360   31.8820  162.2310 O.3   181  SER181     -0.2180
     36  N         13.0040   30.0160  169.0960 N.3   211  ASN211     -0.1225
     37  CA        12.6900   30.9060  167.9920 C.3   211  ASN211      0.1785
     38  C         11.1890   31.1730  167.9050 C.2   211  ASN211      0.2597
     39  O         10.3730   30.2720  168.1300 O.2   211  ASN211     -0.2718
     40  CB        13.1720   30.3060  166.6710 C.3   211  ASN211      0.1169
     41  CG        14.6450   29.9860  166.6830 C.2   211  ASN211      0.2627
     42  OD1       15.0880   29.0490  167.3470 O.2   211  ASN211     -0.2716
     43  ND2       15.4100   30.7490  165.9390 N.am  211  ASN211     -0.0877
     44  N         10.8270   32.4120  167.5860 N.am  212  VAL212     -0.1980
     45  CA         9.4160   32.8120  167.4520 C.3   212  VAL212      0.1595
     46  C          8.8970   32.5550  166.0360 C.2   212  VAL212      0.2287
     47  O          7.7050   32.3300  165.8350 O.2   212  VAL212     -0.2864
     48  CB         9.2110   34.2880  167.8380 C.3   212  VAL212      0.0276
     49  CG1        7.8170   34.7260  167.5050 C.3   212  VAL212      0.0022
     50  CG2        9.4410   34.4570  169.3140 C.3   212  VAL212      0.0022
     51  N          9.8210   30.5660  162.0940 N.3   213  THR213     -0.1203
     52  CA        10.6340   29.6620  161.2970 C.3   213  THR213      0.1994
     53  C         11.5060   30.4760  160.3240 C.2   213  THR213      0.2617
     54  O         11.2970   31.6730  160.1460 O.2   213  THR213     -0.2717
     55  CB         9.7620   28.6920  160.5160 C.3   213  THR213      0.1784
     56  OG1        8.9640   29.4300  159.6000 O.3   213  THR213     -0.2211
     57  CG2        8.8520   27.9270  161.4490 C.3   213  THR213      0.0376
     58  N         12.4950   29.8300  159.7280 N.am  214  GLN214     -0.1979
     59  CA        13.3650   30.4640  158.7430 C.3   214  GLN214      0.1601
     60  C         13.4550   29.5760  157.5270 C.2   214  GLN214      0.2287
     61  O         13.7660   28.4000  157.6320 O.2   214  GLN214     -0.2864
     62  CB        14.7730   30.6450  159.2810 C.3   214  GLN214      0.0394
     63  CG        14.9770   31.7890  160.2230 C.3   214  GLN214      0.0908
     64  CD        16.4520   31.9530  160.5710 C.2   214  GLN214      0.2608
     65  OE1       16.9350   31.4340  161.5840 O.2   214  GLN214     -0.2717
     66  NE2       17.1780   32.6460  159.7170 N.am  214  GLN214     -0.0878
     67  N         14.4630   25.9670  159.0860 N.3   218  THR218     -0.1218
     68  CA        13.5080   25.4350  160.0480 C.3   218  THR218      0.1862
     69  C         12.0670   25.4120  159.5110 C.2   218  THR218      0.2287
     70  O         11.1070   25.5550  160.2700 O.2   218  THR218     -0.2866
     71  CB        13.5830   26.2570  161.3590 C.3   218  THR218      0.1770
     72  OG1       13.4600   27.6440  161.0510 O.3   218  THR218     -0.2211
     73  CG2       14.9100   26.0410  162.0690 C.3   218  THR218      0.0375
     74  N          3.8700   39.9610  156.7290 N.3   255  LYS255     -0.1231
     75  CA         5.1800   40.4180  156.3050 C.3   255  LYS255      0.1693
     76  C          6.1820   39.2550  156.3300 C.2   255  LYS255      0.2592
     77  O          6.9440   39.0710  155.3800 O.2   255  LYS255     -0.2718
     78  CB         5.6560   41.5780  157.1700 C.3   255  LYS255      0.0285
     79  CG         6.7280   42.4030  156.4960 C.3   255  LYS255      0.0035
     80  CD         7.7470   42.9360  157.4970 C.3   255  LYS255      0.0206
     81  CE         8.8940   43.6730  156.8070 C.3   255  LYS255      0.1093
     82  NZ         9.8960   44.1100  157.8150 N.3   255  LYS255     -0.1314
     83  N          6.1520   38.4460  157.3880 N.am  256  TYR256     -0.1976
     84  CA         7.0430   37.2800  157.4650 C.3   256  TYR256      0.1639
     85  C          6.7030   36.1820  156.4530 C.2   256  TYR256      0.2290
     86  O          7.5980   35.4760  155.9860 O.2   256  TYR256     -0.2864
     87  CB         7.1030   36.7130  158.8890 C.3   256  TYR256      0.0560
     88  CG         8.0790   37.4600  159.7850 C.ar  256  TYR256     -0.0198
     89  CD1        7.7330   38.6720  160.3450 C.ar  256  TYR256     -0.0009
     90  CD2        9.3540   36.9590  160.0400 C.ar  256  TYR256     -0.0009
     91  CE1        8.6140   39.3780  161.1370 C.ar  256  TYR256      0.0417
     92  CE2       10.2500   37.6440  160.8370 C.ar  256  TYR256      0.0417
     93  CZ         9.8680   38.8640  161.3900 C.ar  256  TYR256      0.1957
     94  OH        10.7040   39.5850  162.2080 O.3   256  TYR256     -0.2866
     95  N          8.5960   36.0740  153.2500 N.3   259  GLU259     -0.1245
     96  CA         9.8810   35.4000  153.2700 C.3   259  GLU259      0.1567
     97  C          9.7710   33.9250  153.6270 C.2   259  GLU259      0.2260
     98  O         10.7370   33.3090  154.0540 O.2   259  GLU259     -0.2867
     99  CB        10.7750   36.1160  154.2490 C.3   259  GLU259      0.0388
    100  CG        10.9170   37.5680  153.9050 C.3   259  GLU259      0.1160
    101  CD        12.2190   38.1470  154.4000 C.2   259  GLU259      0.3649
    102  OE1       12.7460   37.6270  155.4110 O.co2 259  GLU259     -0.2457
    103  OE2       12.7200   39.1230  153.7840 O.co2 259  GLU259     -0.2457
    104  N          7.3180   38.7470  172.9680 N.3   284  VAL284     -0.1245
    105  CA         7.7950   39.4700  171.7750 C.3   284  VAL284      0.1561
    106  C          7.1950   40.8670  171.6750 C.2   284  VAL284      0.2260
    107  O          6.1390   41.1300  172.2190 O.2   284  VAL284     -0.2867
    108  CB         7.5010   38.7050  170.4520 C.3   284  VAL284      0.0252
    109  CG1        8.1380   37.3140  170.4790 C.3   284  VAL284      0.0019
    110  CG2        6.0080   38.6260  170.1950 C.3   284  VAL284      0.0019
    111  N          9.0670   44.3670  162.5060 N.3   290  VAL290     -0.1231
    112  CA         9.9880   43.2550  162.7740 C.3   290  VAL290      0.1692
    113  C          9.6680   42.6660  164.1550 C.2   290  VAL290      0.2592
    114  O          9.1860   43.3610  165.0500 O.2   290  VAL290     -0.2718
    115  CB        11.4700   43.7330  162.7350 C.3   290  VAL290      0.0266
    116  CG1       12.4100   42.5710  162.5180 C.3   290  VAL290      0.0020
    117  CG2       11.6600   44.7750  161.6390 C.3   290  VAL290      0.0020
    118  N          9.9500   41.3900  164.3410 N.am  291  LEU291     -0.1966
    119  CA         9.5020   40.6950  165.5380 C.3   291  LEU291      0.1728
    120  C         10.7120   40.3690  166.4040 C.2   291  LEU291      0.2616
    121  O         11.5530   39.5610  166.0180 O.2   291  LEU291     -0.2715
    122  CB         8.7030   39.4350  165.1430 C.3   291  LEU291      0.0311
    123  CG         7.4790   39.0700  165.9990 C.3   291  LEU291      0.0022
    124  CD1        6.5610   40.2600  166.2550 C.3   291  LEU291      0.0001
    125  CD2        6.7060   37.9710  165.3250 C.3   291  LEU291      0.0001
    126  N         10.8060   41.0170  167.5660 N.am  292  ARG292     -0.1963
    127  CA        11.9350   40.8240  168.4770 C.3   292  ARG292      0.1729
    128  C         11.4580   40.4790  169.8590 C.2   292  ARG292      0.2616
    129  O         10.3740   40.8780  170.2560 O.2   292  ARG292     -0.2715
    130  CB        12.7690   42.0930  168.5660 C.3   292  ARG292      0.0348
    131  CG        13.3940   42.4920  167.2480 C.3   292  ARG292      0.0492
    132  CD        14.5830   41.5980  166.9070 C.3   292  ARG292      0.2205
    133  NE        15.0300   41.7630  165.5180 N.pl3 292  ARG292     -0.0865
    134  CZ        14.7210   40.9380  164.5150 C.cat 292  ARG292      0.5346
    135  NH1       13.9490   39.8680  164.7310 N.pl3 292  ARG292      0.1354
    136  NH2       15.1800   41.1800  163.2870 N.pl3 292  ARG292      0.1354
    137  N         12.2880   39.7540  170.5960 N.am  293  HIS293     -0.1973
    138  CA        12.0070   39.4600  171.9780 C.3   293  HIS293      0.1656
    139  C         12.0100   40.7430  172.8160 C.2   293  HIS293      0.2291
    140  O         12.6940   41.7290  172.5070 O.2   293  HIS293     -0.2864
    141  CB        13.0130   38.4630  172.5390 C.3   293  HIS293      0.0771
    142  CG        12.6180   37.0400  172.3320 C.ar  293  HIS293      0.0820
    143  ND1       13.2200   36.2290  171.4010 N.ar  293  HIS293     -0.2267
    144  CD2       11.6680   36.2850  172.9340 C.ar  293  HIS293      0.1154
    145  CE1       12.6600   35.0320  171.4450 C.ar  293  HIS293      0.1986
    146  NE2       11.7110   35.0430  172.3600 N.ar  293  HIS293     -0.2212
@<TRIPOS>BOND
     1    95    96    1
     2    96    97    1
     3    96    99    1
     4    97    98    2
     5   103   101   ar
     6   100    99    1
     7   100   101    1
     8   101   102   ar
     9    77    76    2
    10    86    85    2
    11    75    76    1
    12    75    74    1
    13    75    78    1
    14    76    83   am
    15    85    84    1
    16    79    78    1
    17    79    80    1
    18    81    80    1
    19    81    82    1
    20    83    84    1
    21    84    87    1
    22    60    61    2
    23    60    59    1
    24    59    62    1
    25    59    58    1
    26    87    88    1
    27    67    68    1
    28    62    63    1
    29    69    68    1
    30    69    70    2
    31    56    55    1
    32    66    64   am
    33    58    53   am
    34    88    90   ar
    35    88    89   ar
    36    90    92   ar
    37    68    71    1
    38    54    53    2
    39    63    64    1
    40    53    52    1
    41    89    91   ar
    42    55    52    1
    43    55    57    1
    44    64    65    2
    45    92    93   ar
    46    72    71    1
    47    91    93   ar
    48    52    51    1
    49    71    73    1
    50    93    94    1
    51   117   115    1
    52    35    34    1
    53   111   112    1
    54   116   115    1
    55   115   112    1
    56   112   113    1
    57    34    31    1
    58   136   134    1
    59     7     5    1
    60   113   118   am
    61   113   114    2
    62    31    32    1
    63    31    30    1
    64   118   119    1
    65   134   135    1
    66   134   133    2
    67    32    33    2
    68     6     5    1
    69   122   119    1
    70   122   123    1
    71    30    28   am
    72     5     2    1
    73   125   123    1
    74   133   132    1
    75   119   120    1
    76    47    46    2
    77     1     2    1
    78    43    41   am
    79   123   124    1
    80   121   120    2
    81    46    45    1
    82     2     3    1
    83    28    29    2
    84    28    27    1
    85   120   126   am
    86    40    41    1
    87    40    37    1
    88    41    42    2
    89   132   131    1
    90   131   130    1
    91    27    26    1
    92    45    44    1
    93    45    48    1
    94    49    48    1
    95   126   127    1
    96    44    38   am
    97     3     8   am
    98     3     4    2
    99     8     9    1
   100    48    50    1
   101    38    37    1
   102    38    39    2
   103    37    36    1
   104   127   130    1
   105   127   128    1
   106    26    21   am
   107     9    10    1
   108    18    16    1
   109    21    22    2
   110    21    20    1
   111   128   129    2
   112   128   137   am
   113    10    11    2
   114   110   108    1
   115   108   109    1
   116   108   105    1
   117   137   138    1
   118    16    17    1
   119    16    13    1
   120    23    20    1
   121    23    24    1
   122    20    19    1
   123    12    13    1
   124   143   145   ar
   125   143   142   ar
   126   145   146   ar
   127    24    25    1
   128    13    14    1
   129   106   105    1
   130   106   107    2
   131   105   104    1
   132   138   141    1
   133   138   139    1
   134    19    25    1
   135   142   141    1
   136   142   144   ar
   137   146   144   ar
   138   140   139    2
   139    14    15    2
