@<TRIPOS>MOLECULE
tmp/2o3qB00.pdb
 140 136 0 0 0
SMALL
GASTEIGER

@<TRIPOS>ATOM
      1  N         19.5290    2.5590  -33.5820 N.3    81  TRP81      -0.1241
      2  CA        20.4750    1.5220  -33.1170 C.3    81  TRP81       0.1605
      3  C         20.0570    1.0050  -31.7620 C.2    81  TRP81       0.2264
      4  O         19.4660    1.7150  -31.0090 O.2    81  TRP81      -0.2867
      5  CB        21.9350    2.0230  -33.1510 C.3    81  TRP81       0.0550
      6  CG        22.1880    3.2530  -32.3320 C.ar   81  TRP81       0.0003
      7  CD1       22.1100    4.5480  -32.7320 C.ar   81  TRP81       0.0946
      8  CD2       22.5020    3.2750  -30.9440 C.ar   81  TRP81       0.0152
      9  NE1       22.4050    5.3880  -31.6720 N.ar   81  TRP81      -0.2442
     10  CE2       22.6650    4.6250  -30.5700 C.ar   81  TRP81       0.0810
     11  CE3       22.6870    2.2680  -29.9720 C.ar   81  TRP81       0.0012
     12  CZ2       22.9570    5.0180  -29.2510 C.ar   81  TRP81       0.0191
     13  CZ3       23.0110    2.6810  -28.6260 C.ar   81  TRP81       0.0001
     14  CH2       23.1060    4.0350  -28.3010 C.ar   81  TRP81       0.0015
     15  N         26.2620    1.1510  -29.7520 N.3    85  LYS85      -0.1245
     16  CA        26.5100    2.5860  -29.8380 C.3    85  LYS85       0.1561
     17  C         27.7300    2.9500  -30.6840 C.2    85  LYS85       0.2260
     18  O         27.6880    3.8210  -31.5740 O.2    85  LYS85      -0.2867
     19  CB        26.6920    3.1410  -28.4350 C.3    85  LYS85       0.0271
     20  CG        26.7270    4.6170  -28.4580 C.3    85  LYS85       0.0035
     21  CD        26.7740    5.2540  -27.0590 C.3    85  LYS85       0.0206
     22  CE        25.9560    6.5070  -27.1140 C.3    85  LYS85       0.1093
     23  NZ        26.0690    7.1930  -25.7950 N.3    85  LYS85      -0.1314
     24  N         20.4610    9.5500  -33.9370 N.3   101  LEU101     -0.1231
     25  CA        19.9280   10.5100  -33.0430 C.3   101  LEU101      0.1693
     26  C         21.0080   11.4810  -32.4660 C.2   101  LEU101      0.2591
     27  O         20.7960   12.7010  -32.3330 O.2   101  LEU101     -0.2718
     28  CB        19.2410    9.7410  -31.9450 C.3   101  LEU101      0.0284
     29  CG        18.5860   10.7230  -30.9560 C.3   101  LEU101      0.0019
     30  CD1       17.5760   11.7370  -31.5750 C.3   101  LEU101      0.0001
     31  CD2       17.9550    9.9050  -29.8260 C.3   101  LEU101      0.0001
     32  N         22.1980   10.9380  -32.2480 N.am  102  GLU102     -0.1979
     33  CA        23.2820   11.6590  -31.6590 C.3   102  GLU102      0.1602
     34  C         24.0240   12.5250  -32.6990 C.2   102  GLU102      0.2287
     35  O         24.9240   13.2340  -32.3730 O.2   102  GLU102     -0.2864
     36  CB        24.2270   10.6320  -31.0140 C.3   102  GLU102      0.0415
     37  CG        23.6040    9.9260  -29.7770 C.3   102  GLU102      0.1163
     38  CD        22.6790    8.7360  -30.1830 C.2   102  GLU102      0.3649
     39  OE1       22.8400    8.0860  -31.2830 O.co2 102  GLU102     -0.2457
     40  OE2       21.7880    8.4330  -29.3820 O.co2 102  GLU102     -0.2457
     41  N         24.2850   13.5930  -25.4310 N.3   111  ASP111     -0.1225
     42  CA        24.9520   12.2840  -25.4220 C.3   111  ASP111      0.1805
     43  C         25.9580   12.0820  -24.2940 C.2   111  ASP111      0.2598
     44  O         26.9210   12.8380  -24.1340 O.2   111  ASP111     -0.2718
     45  CB        25.6450   12.0550  -26.7780 C.3   111  ASP111      0.1424
     46  CG        26.1490   10.6080  -26.9890 C.2   111  ASP111      0.3668
     47  OD1       27.1960   10.5160  -27.6830 O.co2 111  ASP111     -0.2456
     48  OD2       25.4960    9.5960  -26.5650 O.co2 111  ASP111     -0.2456
     49  N         25.7790   10.9890  -23.5850 N.am  112  ASP112     -0.1960
     50  CA        26.7000   10.5690  -22.5650 C.3   112  ASP112      0.1840
     51  C         26.7780   11.5150  -21.3310 C.2   112  ASP112      0.2622
     52  O         27.7840   11.5040  -20.6620 O.2   112  ASP112     -0.2715
     53  CB        28.1210   10.4030  -23.0970 C.3   112  ASP112      0.1450
     54  CG        28.3570    9.0320  -23.6680 C.2   112  ASP112      0.3671
     55  OD1       27.4230    8.1700  -23.5710 O.co2 112  ASP112     -0.2456
     56  OD2       29.4570    8.8240  -24.2220 O.co2 112  ASP112     -0.2456
     57  N         25.7610   12.3140  -21.0880 N.am  113  LEU113     -0.1963
     58  CA        25.7470   13.2970  -19.9630 C.3   113  LEU113      0.1728
     59  C         24.5920   12.9460  -19.0620 C.2   113  LEU113      0.2616
     60  O         23.6740   12.2050  -19.4720 O.2   113  LEU113     -0.2715
     61  CB        25.5180   14.7340  -20.4600 C.3   113  LEU113      0.0311
     62  CG        26.6770   15.2850  -21.3030 C.3   113  LEU113      0.0022
     63  CD1       26.3280   16.7520  -21.7670 C.3   113  LEU113      0.0001
     64  CD2       28.1270   15.1770  -20.6230 C.3   113  LEU113      0.0001
     65  N         24.6210   13.4930  -17.8610 N.am  114  THR114     -0.1951
     66  CA        23.5700   13.2020  -16.8840 C.3   114  THR114      0.1897
     67  C         23.2560   14.5500  -16.3450 C.2   114  THR114      0.2313
     68  O         24.2100   15.3900  -16.2000 O.2   114  THR114     -0.2863
     69  CB        24.0260   12.2980  -15.7730 C.3   114  THR114      0.1794
     70  OG1       24.3150   10.9860  -16.3730 O.3   114  THR114     -0.2208
     71  CG2       22.8000   12.0660  -14.7070 C.3   114  THR114      0.0378
     72  N         16.7820   13.0810  -17.4550 N.3   141  VAL141     -0.1231
     73  CA        17.5450   12.4680  -18.5030 C.3   141  VAL141      0.1692
     74  C         16.5760   11.5360  -19.2320 C.2   141  VAL141      0.2592
     75  O         16.5100   11.6150  -20.4100 O.2   141  VAL141     -0.2718
     76  CB        18.7500   11.6820  -17.9530 C.3   141  VAL141      0.0266
     77  CG1       19.5160   10.7970  -19.0500 C.3   141  VAL141      0.0020
     78  CG2       19.8070   12.6200  -17.4800 C.3   141  VAL141      0.0020
     79  N         15.8330   10.6760  -18.5390 N.am  142  SER142     -0.1952
     80  CA        14.9670    9.6680  -19.2700 C.3   142  SER142      0.1924
     81  C         13.9200   10.3260  -20.0340 C.2   142  SER142      0.2314
     82  O         13.6580    9.8760  -21.1350 O.2   142  SER142     -0.2863
     83  CB        14.2900    8.6960  -18.3360 C.3   142  SER142      0.2116
     84  OG        15.1940    8.1080  -17.3660 O.3   142  SER142     -0.2180
     85  N         15.3130   11.7220  -23.3090 N.3   145  TRP145     -0.1227
     86  CA        15.5970   10.7400  -24.3910 C.3   145  TRP145      0.1737
     87  C         14.3310   10.0820  -25.0350 C.2   145  TRP145      0.2595
     88  O         14.3160    9.8750  -26.2650 O.2   145  TRP145     -0.2718
     89  CB        16.5950    9.6920  -23.9780 C.3   145  TRP145      0.0564
     90  CG        17.9960   10.2400  -23.8290 C.ar  145  TRP145      0.0003
     91  CD1       18.6830   10.3420  -22.6920 C.ar  145  TRP145      0.0946
     92  CD2       18.8810   10.7080  -24.8830 C.ar  145  TRP145      0.0152
     93  NE1       19.9540   10.8290  -22.9310 N.ar  145  TRP145     -0.2442
     94  CE2       20.0740   11.0950  -24.2810 C.ar  145  TRP145      0.0810
     95  CE3       18.7500   10.8570  -26.2600 C.ar  145  TRP145      0.0012
     96  CZ2       21.1410   11.6060  -25.0030 C.ar  145  TRP145      0.0191
     97  CZ3       19.8700   11.3090  -26.9980 C.ar  145  TRP145      0.0001
     98  CH2       21.0120   11.6940  -26.3640 C.ar  145  TRP145      0.0015
     99  N         13.3370    9.6920  -24.2020 N.am  146  LYS146     -0.1980
    100  CA        11.9880    9.2330  -24.6540 C.3   146  LYS146      0.1596
    101  C         11.3830   10.2010  -25.6350 C.2   146  LYS146      0.2287
    102  O         10.8130    9.7760  -26.6170 O.2   146  LYS146     -0.2864
    103  CB        10.9510    9.1290  -23.4790 C.3   146  LYS146      0.0298
    104  CG         9.5580    8.4870  -23.9270 C.3   146  LYS146      0.0038
    105  CD         8.6090    8.3240  -22.7390 C.3   146  LYS146      0.0206
    106  CE         7.3960    7.5000  -23.0720 C.3   146  LYS146      0.1093
    107  NZ         6.4210    7.4800  -21.9080 N.3   146  LYS146     -0.1314
    108  N         13.8690   10.5930  -28.9190 N.3   149  SER149     -0.1217
    109  CA        13.8100    9.2780  -29.5850 C.3   149  SER149      0.1889
    110  C         12.4850    9.0600  -30.3000 C.2   149  SER149      0.2288
    111  O         12.4910    8.6070  -31.4310 O.2   149  SER149     -0.2866
    112  CB        14.0490    8.1260  -28.6260 C.3   149  SER149      0.2089
    113  OG        15.3210    8.3990  -28.0370 O.3   149  SER149     -0.2183
    114  N         14.3190    1.4300  -25.5180 N.3   177  THR177     -0.1203
    115  CA        13.8360    2.6020  -26.2810 C.3   177  THR177      0.1994
    116  C         13.5070    2.1920  -27.7480 C.2   177  THR177      0.2617
    117  O         12.3670    2.3940  -28.1920 O.2   177  THR177     -0.2717
    118  CB        14.7390    3.9020  -26.1760 C.3   177  THR177      0.1784
    119  OG1       14.4760    4.5740  -24.9270 O.3   177  THR177     -0.2211
    120  CG2       14.3960    4.9390  -27.2980 C.3   177  THR177      0.0376
    121  N         14.4650    1.5970  -28.4710 N.am  178  PHE178     -0.1975
    122  CA        14.1570    1.1000  -29.8150 C.3   178  PHE178      0.1639
    123  C         12.7980    0.4030  -29.7200 C.2   178  PHE178      0.2290
    124  O         11.8090    0.8210  -30.3620 O.2   178  PHE178     -0.2864
    125  CB        15.2820    0.2040  -30.4190 C.3   178  PHE178      0.0560
    126  CG        14.9060   -0.4200  -31.7680 C.ar  178  PHE178     -0.0200
    127  CD1       14.4940    0.3760  -32.8100 C.ar  178  PHE178     -0.0042
    128  CD2       14.9440   -1.7930  -31.9600 C.ar  178  PHE178     -0.0042
    129  CE1       14.1140   -0.1520  -34.0220 C.ar  178  PHE178     -0.0003
    130  CE2       14.5690   -2.3730  -33.1940 C.ar  178  PHE178     -0.0003
    131  CZ        14.1440   -1.5470  -34.2230 C.ar  178  PHE178     -0.0000
    132  N         10.5880    3.4880  -30.2320 N.3   182  GLN182     -0.1245
    133  CA        10.9990    3.7030  -31.6410 C.3   182  GLN182      0.1566
    134  C         10.1750    2.8810  -32.6670 C.2   182  GLN182      0.2260
    135  O          9.4080    3.4220  -33.4890 O.2   182  GLN182     -0.2867
    136  CB        12.4950    3.3800  -31.8270 C.3   182  GLN182      0.0367
    137  CG        13.4790    4.0320  -30.9030 C.3   182  GLN182      0.0905
    138  CD        14.5260    4.7320  -31.6180 C.2   182  GLN182      0.2608
    139  OE1       14.2610    5.7790  -32.2240 O.2   182  GLN182     -0.2717
    140  NE2       15.7160    4.1780  -31.6300 N.am  182  GLN182     -0.0878
@<TRIPOS>BOND
     1   131   129   ar
     2   131   130   ar
     3   129   127   ar
     4    24    25    1
     5     1     2    1
     6   135   134    2
     7   130   128   ar
     8     5     2    1
     9     5     6    1
    10     2     3    1
    11    25    26    1
    12    25    28    1
    13   127   126   ar
    14     7     6   ar
    15     7     9   ar
    16    34    35    2
    17    34    33    1
    18   134   133    1
    19    26    27    2
    20    26    32   am
    21     6     8   ar
    22    32    33    1
    23   139   138    2
    24   128   126   ar
    25    28    29    1
    26   136   133    1
    27   136   137    1
    28   126   125    1
    29     3     4    2
    30     9    10   ar
    31    33    36    1
    32   133   132    1
    33   140   138   am
    34   138   137    1
    35    30    29    1
    36    18    17    2
    37   111   110    2
    38    39    38   ar
    39    36    37    1
    40    29    31    1
    41     8    10   ar
    42     8    11   ar
    43    17    16    1
    44    10    12   ar
    45   125   122    1
    46   124   123    2
    47   110   109    1
    48    38    37    1
    49    38    40   ar
    50    11    13   ar
    51    16    15    1
    52    16    19    1
    53   122   123    1
    54   122   121    1
    55   109   108    1
    56   109   112    1
    57    12    14   ar
    58    13    14   ar
    59   112   113    1
    60   121   116   am
    61    20    19    1
    62    20    21    1
    63   117   116    2
    64   116   115    1
    65    47    46   ar
    66   120   118    1
    67    22    21    1
    68    22    23    1
    69    97    98   ar
    70    97    95   ar
    71    46    45    1
    72    46    48   ar
    73    45    42    1
    74   102   101    2
    75    98    96   ar
    76   115   118    1
    77   115   114    1
    78    88    87    2
    79    95    92   ar
    80   118   119    1
    81   101   100    1
    82    41    42    1
    83    42    43    1
    84    87    86    1
    85    87    99   am
    86    96    94   ar
    87    92    94   ar
    88    92    90   ar
    89   100    99    1
    90   100   103    1
    91    86    89    1
    92    86    85    1
    93    43    44    2
    94    43    49   am
    95    94    93   ar
    96    56    54   ar
    97    89    90    1
    98   104   103    1
    99   104   105    1
   100    90    91   ar
   101    54    55   ar
   102    54    53    1
   103    49    50    1
   104    53    50    1
   105   106   105    1
   106   106   107    1
   107    93    91   ar
   108    50    51    1
   109    63    62    1
   110    51    57   am
   111    51    52    2
   112    62    64    1
   113    62    61    1
   114    82    81    2
   115    57    58    1
   116    61    58    1
   117    75    74    2
   118    81    80    1
   119    58    59    1
   120    60    59    2
   121    80    79    1
   122    80    83    1
   123    74    79   am
   124    74    73    1
   125    59    65   am
   126    77    76    1
   127    73    76    1
   128    73    72    1
   129    83    84    1
   130    76    78    1
   131    65    66    1
   132    66    67    1
   133    66    69    1
   134    70    69    1
   135    67    68    2
   136    69    71    1
