@<TRIPOS>MOLECULE
tmp/2o3zA00.pdb
 121 115 0 0 0
SMALL
GASTEIGER

@<TRIPOS>ATOM
      1  N         54.7030   56.5560    1.6320 N.3    17  ILE17      -0.1231
      2  CA        54.7590   57.8870    1.0430 C.3    17  ILE17       0.1692
      3  C         55.7470   58.8300    1.7320 C.2    17  ILE17       0.2592
      4  O         56.3370   59.6970    1.0790 O.2    17  ILE17      -0.2718
      5  CB        53.3540   58.5590    0.9860 C.3    17  ILE17       0.0266
      6  CG1       53.3840   59.7170   -0.0200 C.3    17  ILE17       0.0019
      7  CG2       52.9440   59.0960    2.3650 C.3    17  ILE17       0.0020
      8  CD1       52.0280   60.3730   -0.2530 C.3    17  ILE17       0.0001
      9  N         55.9390   58.6620    3.0390 N.am   18  HIS18      -0.1976
     10  CA        56.8630   59.5330    3.7660 C.3    18  HIS18       0.1656
     11  C         58.2990   59.0310    3.9170 C.2    18  HIS18       0.2291
     12  O         59.2380   59.7560    3.6020 O.2    18  HIS18      -0.2864
     13  CB        56.2970   59.8810    5.1430 C.3    18  HIS18       0.0771
     14  CG        55.1530   60.8470    5.0930 C.ar   18  HIS18       0.0820
     15  ND1       55.2290   62.0550    4.4310 N.ar   18  HIS18      -0.2267
     16  CD2       53.9130   60.7920    5.6340 C.ar   18  HIS18       0.1154
     17  CE1       54.0860   62.7010    4.5680 C.ar   18  HIS18       0.1986
     18  NE2       53.2700   61.9570    5.2940 N.ar   18  HIS18      -0.2212
     19  N         50.9230   65.9070    8.5150 N.3    57  HIS57      -0.1241
     20  CA        51.0680   65.2310    7.2240 C.3    57  HIS57       0.1621
     21  C         50.7330   63.7410    7.2020 C.2    57  HIS57       0.2264
     22  O         50.7780   63.1010    6.1460 O.2    57  HIS57      -0.2867
     23  CB        52.4730   65.4760    6.6740 C.3    57  HIS57       0.0745
     24  CG        52.8090   66.9270    6.5520 C.ar   57  HIS57       0.0817
     25  ND1       52.0930   67.7860    5.7470 N.ar   57  HIS57      -0.2268
     26  CD2       53.7350   67.6860    7.1850 C.ar   57  HIS57       0.1154
     27  CE1       52.5590   69.0130    5.8920 C.ar   57  HIS57       0.1986
     28  NE2       53.5550   68.9810    6.7600 N.ar   57  HIS57      -0.2212
     29  N         45.3910   60.7290   -2.2720 N.3   178  THR178     -0.1203
     30  CA        46.1090   61.6570   -1.4110 C.3   178  THR178      0.1994
     31  C         46.4300   62.8580   -2.2990 C.2   178  THR178      0.2618
     32  O         46.6460   62.7020   -3.5050 O.2   178  THR178     -0.2717
     33  CB        47.4530   61.0210   -0.9670 C.3   178  THR178      0.1784
     34  OG1       47.2030   59.9320   -0.0730 O.3   178  THR178     -0.2211
     35  CG2       48.3540   62.0430   -0.3150 C.3   178  THR178      0.0376
     36  N         46.4690   64.0480   -1.7180 N.am  179  PHE179     -0.1961
     37  CA        46.7940   65.2320   -2.4960 C.3   179  PHE179      0.1771
     38  C         47.6530   66.2040   -1.6870 C.2   179  PHE179      0.2619
     39  O         47.7660   66.0920   -0.4610 O.2   179  PHE179     -0.2715
     40  CB        45.5140   65.9290   -2.9720 C.3   179  PHE179      0.0574
     41  CG        44.7920   66.6780   -1.8910 C.ar  179  PHE179     -0.0200
     42  CD1       45.0410   68.0320   -1.6790 C.ar  179  PHE179     -0.0042
     43  CD2       43.8790   66.0300   -1.0660 C.ar  179  PHE179     -0.0042
     44  CE1       44.3890   68.7370   -0.6560 C.ar  179  PHE179     -0.0003
     45  CE2       43.2220   66.7210   -0.0410 C.ar  179  PHE179     -0.0003
     46  CZ        43.4810   68.0810    0.1620 C.ar  179  PHE179     -0.0000
     47  N         48.2670   67.1470   -2.3930 N.am  180  ALA180     -0.1977
     48  CA        49.0970   68.1660   -1.7750 C.3   180  ALA180      0.1597
     49  C         49.2440   69.3020   -2.7780 C.2   180  ALA180      0.2287
     50  O         49.2190   69.0820   -3.9850 O.2   180  ALA180     -0.2864
     51  CB        50.4630   67.5940   -1.4120 C.3   180  ALA180      0.0319
     52  N         53.5050   73.3790   -0.9080 N.3   184  GLU184     -0.1231
     53  CA        53.8720   72.7320    0.3480 C.3   184  GLU184      0.1699
     54  C         54.8230   71.5550    0.1400 C.2   184  GLU184      0.2592
     55  O         55.2820   70.9390    1.1050 O.2   184  GLU184     -0.2718
     56  CB        52.6180   72.2900    1.1250 C.3   184  GLU184      0.0402
     57  CG        51.5680   71.5500    0.3210 C.3   184  GLU184      0.1161
     58  CD        50.3080   71.2360    1.1340 C.2   184  GLU184      0.3649
     59  OE1       49.8360   72.1170    1.8840 O.co2 184  GLU184     -0.2457
     60  OE2       49.7810   70.1110    1.0110 O.co2 184  GLU184     -0.2457
     61  N         55.1360   71.2510   -1.1160 N.am  185  ILE185     -0.1980
     62  CA        56.0510   70.1520   -1.4110 C.3   185  ILE185      0.1595
     63  C         57.4460   70.4370   -0.8390 C.2   185  ILE185      0.2287
     64  O         58.0590   69.5680   -0.2160 O.2   185  ILE185     -0.2864
     65  CB        56.1980   69.9220   -2.9270 C.3   185  ILE185      0.0276
     66  CG1       54.8580   69.4990   -3.5370 C.3   185  ILE185      0.0022
     67  CG2       57.2600   68.8730   -3.1880 C.3   185  ILE185      0.0022
     68  CD1       54.3600   68.1680   -3.0540 C.3   185  ILE185      0.0001
     69  N         57.4270   69.9020    3.0430 N.3   188  ILE188     -0.1231
     70  CA        57.3230   68.4950    3.4100 C.3   188  ILE188      0.1692
     71  C         58.6590   67.7680    3.2390 C.2   188  ILE188      0.2591
     72  O         59.0630   66.9760    4.0980 O.2   188  ILE188     -0.2718
     73  CB        56.2260   67.7890    2.5620 C.3   188  ILE188      0.0266
     74  CG1       54.8480   68.3510    2.9430 C.3   188  ILE188      0.0019
     75  CG2       56.2770   66.2770    2.7760 C.3   188  ILE188      0.0020
     76  CD1       53.7030   67.8770    2.0570 C.3   188  ILE188      0.0001
     77  N         59.3430   68.0470    2.1320 N.am  189  LYS189     -0.1980
     78  CA        60.6250   67.4170    1.8390 C.3   189  LYS189      0.1596
     79  C         61.7290   67.8520    2.8000 C.2   189  LYS189      0.2287
     80  O         62.5460   67.0350    3.2280 O.2   189  LYS189     -0.2864
     81  CB        61.0720   67.7470    0.4110 C.3   189  LYS189      0.0298
     82  CG        60.2090   67.1670   -0.6930 C.3   189  LYS189      0.0038
     83  CD        60.4910   65.6920   -0.8960 C.3   189  LYS189      0.0206
     84  CE        59.7580   65.1740   -2.1160 C.3   189  LYS189      0.1093
     85  NZ        60.1590   63.7760   -2.4160 N.3   189  LYS189     -0.1314
     86  N         57.6250   62.8770    2.9430 N.3   194  GLY194     -0.1225
     87  CA        57.3200   62.7130    1.5320 C.3   194  GLY194      0.1811
     88  C         58.4120   62.0880    0.6840 C.2   194  GLY194      0.2280
     89  O         58.4340   62.2730   -0.5350 O.2   194  GLY194     -0.2866
     90  N         56.8920   60.1410   -2.1310 N.3   197  GLY197     -0.1210
     91  CA        55.8310   60.7450   -2.9160 C.3   197  GLY197      0.1956
     92  C         56.1210   60.8390   -4.4050 C.2   197  GLY197      0.2613
     93  O         57.2720   60.9210   -4.8200 O.2   197  GLY197     -0.2717
     94  N         55.0650   60.8150   -5.2120 N.am  198  SER198     -0.1938
     95  CA        55.1830   60.9260   -6.6670 C.3   198  SER198      0.2055
     96  C         53.7850   61.1330   -7.2350 C.2   198  SER198      0.2642
     97  O         52.7960   61.0200   -6.5100 O.2   198  SER198     -0.2714
     98  CB        55.7990   59.6590   -7.2750 C.3   198  SER198      0.2130
     99  OG        54.8280   58.6410   -7.4390 O.3   198  SER198     -0.2179
    100  N         53.6960   61.4370   -8.5250 N.am  199  LEU199     -0.1977
    101  CA        52.3950   61.6470   -9.1490 C.3   199  LEU199      0.1596
    102  C         51.6150   60.3350   -9.2730 C.2   199  LEU199      0.2287
    103  O         50.4660   60.3260   -9.7060 O.2   199  LEU199     -0.2864
    104  CB        52.5660   62.3060  -10.5200 C.3   199  LEU199      0.0297
    105  CG        53.3270   63.6370  -10.4860 C.3   199  LEU199      0.0022
    106  CD1       53.4660   64.1810  -11.8970 C.3   199  LEU199      0.0001
    107  CD2       52.5990   64.6310   -9.5930 C.3   199  LEU199      0.0001
    108  N         50.1730   60.5660   -5.4350 N.3   202  THR202     -0.1218
    109  CA        49.7880   61.8660   -4.9260 C.3   202  THR202      0.1862
    110  C         49.2770   62.7940   -6.0160 C.2   202  THR202      0.2287
    111  O         49.8550   62.9050   -7.0980 O.2   202  THR202     -0.2866
    112  CB        50.9750   62.5540   -4.2100 C.3   202  THR202      0.1770
    113  OG1       51.5210   61.6690   -3.2210 O.3   202  THR202     -0.2211
    114  CG2       50.5150   63.8380   -3.5300 C.3   202  THR202      0.0375
    115  N         48.9590   66.3130   -7.1620 N.3   204  VAL204     -0.1245
    116  CA        49.5900   67.6030   -6.9190 C.3   204  VAL204      0.1561
    117  C         48.8280   68.7260   -7.6250 C.2   204  VAL204      0.2260
    118  O         48.6680   68.7230   -8.8460 O.2   204  VAL204     -0.2867
    119  CB        51.0640   67.5790   -7.3840 C.3   204  VAL204      0.0252
    120  CG1       51.7340   68.9070   -7.0880 C.3   204  VAL204      0.0019
    121  CG2       51.8030   66.4370   -6.6850 C.3   204  VAL204      0.0019
@<TRIPOS>BOND
     1   106   105    1
     2   104   105    1
     3   104   101    1
     4   105   107    1
     5   103   102    2
     6   102   101    1
     7   101   100    1
     8   118   117    2
     9   100    96   am
    10   117   116    1
    11    99    98    1
    12   119   120    1
    13   119   116    1
    14   119   121    1
    15    98    95    1
    16    96    95    1
    17    96    97    2
    18   115   116    1
    19   111   110    2
    20    95    94    1
    21   110   109    1
    22   108   109    1
    23    94    92   am
    24   109   112    1
    25    93    92    2
    26    92    91    1
    27   112   114    1
    28   112   113    1
    29    50    49    2
    30    66    68    1
    31    66    65    1
    32    32    31    2
    33    67    65    1
    34    40    37    1
    35    40    41    1
    36    65    62    1
    37    91    90    1
    38    49    48    1
    39    37    36    1
    40    37    38    1
    41    85    84    1
    42    47    48    1
    43    47    38   am
    44    31    36   am
    45    31    30    1
    46    29    30    1
    47    84    83    1
    48    41    42   ar
    49    41    43   ar
    50    48    51    1
    51    38    39    2
    52    42    44   ar
    53    30    33    1
    54    62    61    1
    55    62    63    1
    56    61    54   am
    57    43    45   ar
    58    33    35    1
    59    33    34    1
    60    52    53    1
    61    83    82    1
    62    63    64    2
    63    82    81    1
    64    44    46   ar
    65    89    88    2
    66     8     6    1
    67    45    46   ar
    68     6     5    1
    69    54    53    1
    70    54    55    2
    71    57    56    1
    72    57    58    1
    73    53    56    1
    74    81    78    1
    75    88    87    1
    76     5     2    1
    77     5     7    1
    78    60    58   ar
    79     2     1    1
    80     2     3    1
    81     4     3    2
    82    58    59   ar
    83    87    86    1
    84     3     9   am
    85    78    77    1
    86    78    79    1
    87    76    74    1
    88    77    71   am
    89    73    75    1
    90    73    74    1
    91    73    70    1
    92    79    80    2
    93     9    10    1
    94    69    70    1
    95    71    70    1
    96    71    72    2
    97    12    11    2
    98    10    11    1
    99    10    13    1
   100    15    17   ar
   101    15    14   ar
   102    17    18   ar
   103    14    13    1
   104    14    16   ar
   105    18    16   ar
   106    25    27   ar
   107    25    24   ar
   108    27    28   ar
   109    22    21    2
   110    24    23    1
   111    24    26   ar
   112    23    20    1
   113    28    26   ar
   114    21    20    1
   115    20    19    1
