@<TRIPOS>MOLECULE
tmp/2o48A00.pdb
 123 120 0 0 0
SMALL
GASTEIGER

@<TRIPOS>ATOM
      1  N        -22.8720  -36.5970   -1.5000 N.3   124  TRP124     -0.1241
      2  CA       -23.9330  -37.5590   -1.7680 C.3   124  TRP124      0.1605
      3  C        -24.8620  -37.7290   -0.5920 C.2   124  TRP124      0.2264
      4  O        -26.0530  -38.0200   -0.7820 O.2   124  TRP124     -0.2867
      5  CB       -23.3880  -38.9110   -2.2640 C.3   124  TRP124      0.0550
      6  CG       -22.5000  -39.6070   -1.2940 C.ar  124  TRP124      0.0003
      7  CD1      -21.5480  -39.0280   -0.4860 C.ar  124  TRP124      0.0946
      8  CD2      -22.4850  -41.0240   -0.9970 C.ar  124  TRP124      0.0152
      9  NE1      -20.9210  -40.0000    0.2790 N.ar  124  TRP124     -0.2442
     10  CE2      -21.4730  -41.2290    0.0020 C.ar  124  TRP124      0.0810
     11  CE3      -23.2120  -42.1360   -1.4830 C.ar  124  TRP124      0.0012
     12  CZ2      -21.1630  -42.5180    0.5390 C.ar  124  TRP124      0.0191
     13  CZ3      -22.9110  -43.4210   -0.9730 C.ar  124  TRP124      0.0001
     14  CH2      -21.8640  -43.6000    0.0420 C.ar  124  TRP124      0.0015
     15  N        -16.7480  -37.7540   12.5510 N.3   153  PHE153     -0.1241
     16  CA       -16.3910  -38.8090   11.6030 C.3   153  PHE153      0.1605
     17  C        -14.9030  -39.0730   11.7800 C.2   153  PHE153      0.2264
     18  O        -14.0930  -38.2450   11.3700 O.2   153  PHE153     -0.2867
     19  CB       -16.6480  -38.3390   10.1650 C.3   153  PHE153      0.0534
     20  CG       -16.5910  -39.4510    9.0930 C.ar  153  PHE153     -0.0203
     21  CD1      -16.3270  -40.7720    9.4150 C.ar  153  PHE153     -0.0042
     22  CD2      -16.8460  -39.1400    7.7560 C.ar  153  PHE153     -0.0042
     23  CE1      -16.2480  -41.7750    8.3890 C.ar  153  PHE153     -0.0003
     24  CE2      -16.7960  -40.1120    6.7550 C.ar  153  PHE153     -0.0003
     25  CZ       -16.4710  -41.4520    7.0770 C.ar  153  PHE153     -0.0000
     26  N        -12.0590  -42.6020   11.7020 N.3   155  LYS155     -0.1245
     27  CA       -11.7220  -43.9960   11.5940 C.3   155  LYS155      0.1561
     28  C        -10.1770  -44.0460   11.5410 C.2   155  LYS155      0.2260
     29  O         -9.5310  -43.0770   11.1020 O.2   155  LYS155     -0.2867
     30  CB       -12.2760  -44.5490   10.2620 C.3   155  LYS155      0.0271
     31  CG       -13.7630  -44.7990   10.2100 C.3   155  LYS155      0.0035
     32  CD       -14.2440  -45.2020    8.7810 C.3   155  LYS155      0.0206
     33  CE       -14.8610  -46.6240    8.7640 C.3   155  LYS155      0.1093
     34  NZ       -16.0220  -46.7430    7.7960 N.3   155  LYS155     -0.1314
     35  N         -7.4810  -44.5880    9.3760 N.3   157  LEU157     -0.1245
     36  CA        -7.3330  -44.6770    7.9100 C.3   157  LEU157      0.1561
     37  C         -5.8740  -44.5870    7.5440 C.2   157  LEU157      0.2260
     38  O         -5.5410  -44.1810    6.4140 O.2   157  LEU157     -0.2867
     39  CB        -8.0950  -43.5670    7.1900 C.3   157  LEU157      0.0270
     40  CG        -9.6410  -43.5780    7.2590 C.3   157  LEU157      0.0019
     41  CD1      -10.1950  -42.3230    6.5780 C.3   157  LEU157      0.0001
     42  CD2      -10.3060  -44.8380    6.6410 C.3   157  LEU157      0.0001
     43  N         -4.8170  -46.6660    4.6110 N.3   160  VAL160     -0.1245
     44  CA        -5.5020  -46.3590    3.3560 C.3   160  VAL160      0.1561
     45  C         -4.6070  -45.3190    2.6870 C.2   160  VAL160      0.2260
     46  O         -4.5470  -44.1590    3.1110 O.2   160  VAL160     -0.2867
     47  CB        -6.9520  -45.8510    3.5630 C.3   160  VAL160      0.0252
     48  CG1       -7.6280  -45.7110    2.2460 C.3   160  VAL160      0.0019
     49  CG2       -7.7430  -46.8030    4.4480 C.3   160  VAL160      0.0019
     50  N         -5.4300  -41.5860    1.8520 N.3   163  ALA163     -0.1245
     51  CA        -6.0750  -40.8690    2.9440 C.3   163  ALA163      0.1562
     52  C         -5.0780  -39.9770    3.6750 C.2   163  ALA163      0.2260
     53  O         -5.4210  -38.8800    4.1170 O.2   163  ALA163     -0.2867
     54  CB        -6.7230  -41.8470    3.9110 C.3   163  ALA163      0.0290
     55  N        -10.9180  -35.4400    3.9210 N.3   175  ASP175     -0.1225
     56  CA       -11.5770  -36.7140    3.6920 C.3   175  ASP175      0.1805
     57  C        -12.8440  -36.9110    4.5130 C.2   175  ASP175      0.2597
     58  O        -13.7680  -37.5710    4.0540 O.2   175  ASP175     -0.2718
     59  CB       -10.7150  -37.8430    4.1270 C.3   175  ASP175      0.1424
     60  CG        -9.4630  -37.9670    3.3490 C.2   175  ASP175      0.3668
     61  OD1       -9.2820  -37.3240    2.2760 O.co2 175  ASP175     -0.2456
     62  OD2       -8.6450  -38.7720    3.8470 O.co2 175  ASP175     -0.2456
     63  N        -12.8740  -36.4180    5.7440 N.am  176  LEU176     -0.1979
     64  CA       -13.9850  -36.7090    6.6370 C.3   176  LEU176      0.1596
     65  C        -14.6140  -35.4250    7.1840 C.2   176  LEU176      0.2287
     66  O        -15.8080  -35.3520    7.2990 O.2   176  LEU176     -0.2864
     67  CB       -13.4970  -37.5990    7.7630 C.3   176  LEU176      0.0297
     68  CG       -12.5380  -38.7450    7.3390 C.3   176  LEU176      0.0022
     69  CD1      -11.9210  -39.4670    8.5640 C.3   176  LEU176      0.0001
     70  CD2      -13.2310  -39.7830    6.4310 C.3   176  LEU176      0.0001
     71  N        -17.7300  -33.9180    5.5370 N.3   179  TYR179     -0.1241
     72  CA       -19.0620  -34.3820    5.8400 C.3   179  TYR179      0.1605
     73  C        -19.6350  -33.7110    7.0650 C.2   179  TYR179      0.2264
     74  O        -20.8360  -33.4500    7.1230 O.2   179  TYR179     -0.2867
     75  CB       -19.0730  -35.8830    6.0470 C.3   179  TYR179      0.0534
     76  CG       -18.8440  -36.6920    4.8070 C.ar  179  TYR179     -0.0201
     77  CD1      -19.8750  -36.8790    3.8800 C.ar  179  TYR179     -0.0009
     78  CD2      -17.6060  -37.3110    4.5780 C.ar  179  TYR179     -0.0009
     79  CE1      -19.6830  -37.6630    2.7660 C.ar  179  TYR179      0.0417
     80  CE2      -17.3960  -38.0880    3.4850 C.ar  179  TYR179      0.0417
     81  CZ       -18.4380  -38.2710    2.5810 C.ar  179  TYR179      0.1957
     82  OH       -18.2540  -39.0800    1.4970 O.3   179  TYR179     -0.2866
     83  N        -22.3320  -40.4750    7.2690 N.3   253  TRP253     -0.1241
     84  CA       -22.0170  -39.9050    5.9460 C.3   253  TRP253      0.1605
     85  C        -22.7910  -40.5810    4.7980 C.2   253  TRP253      0.2264
     86  O        -22.7670  -40.1180    3.6460 O.2   253  TRP253     -0.2867
     87  CB       -20.5180  -39.9180    5.6390 C.3   253  TRP253      0.0550
     88  CG       -19.9250  -41.3250    5.4820 C.ar  253  TRP253      0.0003
     89  CD1      -19.5760  -41.9760    4.3020 C.ar  253  TRP253      0.0946
     90  CD2      -19.6410  -42.2650    6.5470 C.ar  253  TRP253      0.0152
     91  NE1      -19.0590  -43.2520    4.5880 N.ar  253  TRP253     -0.2442
     92  CE2      -19.0910  -43.4400    5.9510 C.ar  253  TRP253      0.0810
     93  CE3      -19.7360  -42.2020    7.9440 C.ar  253  TRP253      0.0012
     94  CZ2      -18.6750  -44.5190    6.7030 C.ar  253  TRP253      0.0191
     95  CZ3      -19.2920  -43.3090    8.7010 C.ar  253  TRP253      0.0001
     96  CH2      -18.7950  -44.4410    8.0730 C.ar  253  TRP253      0.0015
     97  N        -16.8890  -50.6460   -3.6040 N.3   277  ASN277     -0.1225
     98  CA       -15.6630  -50.3060   -2.9020 C.3   277  ASN277      0.1785
     99  C        -15.8680  -49.5980   -1.5700 C.2   277  ASN277      0.2597
    100  O        -15.1060  -49.8550   -0.6440 O.2   277  ASN277     -0.2718
    101  CB       -14.7610  -49.4980   -3.7630 C.3   277  ASN277      0.1169
    102  CG       -14.2600  -50.2730   -4.9180 C.2   277  ASN277      0.2627
    103  OD1      -14.3770  -49.8500   -6.0610 O.2   277  ASN277     -0.2716
    104  ND2      -13.7390  -51.4340   -4.6530 N.am  277  ASN277     -0.0877
    105  N        -16.8760  -48.7320   -1.4560 N.am  278  PHE278     -0.1962
    106  CA       -17.0690  -47.9200   -0.2330 C.3   278  PHE278      0.1771
    107  C        -18.3820  -48.2620    0.4030 C.2   278  PHE278      0.2619
    108  O        -19.3150  -48.6220   -0.3360 O.2   278  PHE278     -0.2715
    109  CB       -16.9990  -46.4090   -0.5540 C.3   278  PHE278      0.0574
    110  CG       -15.6890  -46.0100   -1.1560 C.ar  278  PHE278     -0.0200
    111  CD1      -14.5290  -45.9820   -0.3750 C.ar  278  PHE278     -0.0042
    112  CD2      -15.5900  -45.7420   -2.5250 C.ar  278  PHE278     -0.0042
    113  CE1      -13.2920  -45.6320   -0.9600 C.ar  278  PHE278     -0.0003
    114  CE2      -14.3830  -45.4180   -3.1160 C.ar  278  PHE278     -0.0003
    115  CZ       -13.2260  -45.3620   -2.3420 C.ar  278  PHE278     -0.0000
    116  N        -18.5070  -48.1760    1.7400 N.am  279  ASP279     -0.1971
    117  CA       -19.8050  -48.6010    2.2200 C.3   279  ASP279      0.1709
    118  C        -20.9910  -47.7500    1.8820 C.2   279  ASP279      0.2293
    119  O        -20.8810  -46.5410    1.6810 O.2   279  ASP279     -0.2864
    120  CB       -19.9020  -49.4970    3.4930 C.3   279  ASP279      0.1436
    121  CG       -19.6870  -48.7560    4.8020 C.2   279  ASP279      0.3671
    122  OD1      -20.7400  -48.4190    5.4650 O.co2 279  ASP279     -0.2456
    123  OD2      -18.4720  -48.6260    5.1990 O.co2 279  ASP279     -0.2456
@<TRIPOS>BOND
     1   103   102    2
     2   102   104   am
     3   102   101    1
     4   101    98    1
     5    97    98    1
     6   114   112   ar
     7   114   115   ar
     8    98    99    1
     9   112   110   ar
    10   115   113   ar
    11     5     2    1
    12     5     6    1
    13     2     1    1
    14     2     3    1
    15    99   105   am
    16    99   100    2
    17    11     8   ar
    18    11    13   ar
    19   105   106    1
    20     6     8   ar
    21     6     7   ar
    22   110   109    1
    23   110   111   ar
    24     8    10   ar
    25    13    14   ar
    26   113   111   ar
    27     4     3    2
    28   109   106    1
    29     7     9   ar
    30   108   107    2
    31   106   107    1
    32    10     9   ar
    33    10    12   ar
    34    14    12   ar
    35   107   116   am
    36    82    81    1
    37   119   118    2
    38   116   117    1
    39    50    51    1
    40   118   117    1
    41   117   120    1
    42    48    47    1
    43    61    60   ar
    44    81    79   ar
    45    81    80   ar
    46    45    46    2
    47    45    44    1
    48    79    77   ar
    49    51    52    1
    50    51    54    1
    51    60    62   ar
    52    60    59    1
    53    44    47    1
    54    44    43    1
    55    80    78   ar
    56   120   121    1
    57    47    49    1
    58    86    85    2
    59    52    53    2
    60    56    55    1
    61    56    59    1
    62    56    57    1
    63    77    76   ar
    64    58    57    2
    65    89    91   ar
    66    89    88   ar
    67    57    63   am
    68    78    76   ar
    69    91    92   ar
    70    85    84    1
    71   121   123   ar
    72   121   122   ar
    73    76    75    1
    74    88    87    1
    75    88    90   ar
    76    71    72    1
    77    87    84    1
    78    63    64    1
    79    72    75    1
    80    72    73    1
    81    84    83    1
    82    92    90   ar
    83    92    94   ar
    84    38    37    2
    85    70    68    1
    86    90    93   ar
    87    41    40    1
    88    64    65    1
    89    64    67    1
    90    42    40    1
    91    94    96   ar
    92    24    25   ar
    93    24    22   ar
    94    73    74    2
    95    25    23   ar
    96    65    66    2
    97    39    40    1
    98    39    36    1
    99    68    67    1
   100    68    69    1
   101    37    36    1
   102    22    20   ar
   103    34    33    1
   104    36    35    1
   105    93    95   ar
   106    96    95   ar
   107    23    21   ar
   108    33    32    1
   109    32    31    1
   110    20    21   ar
   111    20    19    1
   112    19    16    1
   113    31    30    1
   114    30    27    1
   115    29    28    2
   116    18    17    2
   117    28    27    1
   118    27    26    1
   119    16    17    1
   120    16    15    1
