@<TRIPOS>MOLECULE
tmp/2o4gC00.pdb
 120 114 0 0 0
SMALL
GASTEIGER

@<TRIPOS>ATOM
      1  N         52.2270   -2.1360    3.8460 N.3    10  ASP10      -0.1225
      2  CA        53.0000   -2.3250    2.6510 C.3    10  ASP10       0.1805
      3  C         52.7760   -1.1820    1.6690 C.2    10  ASP10       0.2598
      4  O         51.7440   -0.5230    1.7060 O.2    10  ASP10      -0.2718
      5  CB        52.6570   -3.6450    1.9860 C.3    10  ASP10       0.1424
      6  CG        53.6420   -4.0110    0.9140 C.2    10  ASP10       0.3668
      7  OD1       54.8610   -3.9750    1.1640 O.co2  10  ASP10      -0.2456
      8  OD2       53.2130   -4.3330   -0.1940 O.co2  10  ASP10      -0.2456
      9  N         53.7610   -0.9900    0.7920 N.am   11  LEU11      -0.1966
     10  CA        53.7350   -0.0040   -0.2740 C.3    11  LEU11       0.1728
     11  C         54.1800   -0.6610   -1.5590 C.2    11  LEU11       0.2616
     12  O         55.0640   -1.5220   -1.5490 O.2    11  LEU11      -0.2715
     13  CB        54.7540    1.1260   -0.0290 C.3    11  LEU11       0.0311
     14  CG        54.7750    1.9770    1.2360 C.3    11  LEU11       0.0022
     15  CD1       55.9140    2.9560    1.1430 C.3    11  LEU11       0.0001
     16  CD2       53.4610    2.6870    1.4190 C.3    11  LEU11       0.0001
     17  N         53.5940   -0.2210   -2.6660 N.am   12  GLU12      -0.1963
     18  CA        54.1920   -0.3890   -3.9870 C.3    12  GLU12       0.1733
     19  C         54.7010    0.9720   -4.4500 C.2    12  GLU12       0.2616
     20  O         54.2180    2.0070   -3.9890 O.2    12  GLU12      -0.2715
     21  CB        53.1860   -0.9690   -4.9720 C.3    12  GLU12       0.0429
     22  CG        52.6210   -2.3130   -4.5220 C.3    12  GLU12       0.1163
     23  CD        53.7080   -3.3480   -4.1890 C.2    12  GLU12       0.3649
     24  OE1       54.7030   -3.4210   -4.9100 O.co2  12  GLU12      -0.2457
     25  OE2       53.5530   -4.0940   -3.1950 O.co2  12  GLU12      -0.2457
     26  N         55.6970    0.9580   -5.3280 N.am   13  ALA13      -0.1977
     27  CA        56.3620    2.1810   -5.7940 C.3    13  ALA13       0.1597
     28  C         56.7310    2.1140   -7.2800 C.2    13  ALA13       0.2287
     29  O         56.6400    1.0560   -7.9120 O.2    13  ALA13      -0.2864
     30  CB        57.5830    2.4380   -4.9710 C.3    13  ALA13       0.0319
     31  N         59.6300    2.2680   -8.6600 N.3    15  GLY15      -0.1210
     32  CA        60.9380    1.6660   -8.9330 C.3    15  GLY15       0.1956
     33  C         61.7660    1.4740   -7.6720 C.2    15  GLY15       0.2611
     34  O         61.2560    1.6170   -6.5570 O.2    15  GLY15      -0.2717
     35  N         63.0390    1.1330   -7.8640 N.am   16  LEU16      -0.1979
     36  CA        63.9820    0.8620   -6.7700 C.3    16  LEU16       0.1596
     37  C         64.4790    2.1680   -6.1370 C.2    16  LEU16       0.2287
     38  O         64.3420    3.2340   -6.7400 O.2    16  LEU16      -0.2864
     39  CB        65.1950    0.0740   -7.3050 C.3    16  LEU16       0.0297
     40  CG        64.9030   -1.2690   -7.9820 C.3    16  LEU16       0.0022
     41  CD1       66.1820   -1.9770   -8.3270 C.3    16  LEU16       0.0001
     42  CD2       64.0230   -2.1460   -7.0960 C.3    16  LEU16       0.0001
     43  N         58.7920    2.1540  -13.6050 N.3    70  SER70      -0.1217
     44  CA        59.8000    1.4610  -14.4270 C.3    70  SER70       0.1889
     45  C         59.1640    0.2480  -15.1310 C.2    70  SER70       0.2288
     46  O         58.0340   -0.1510  -14.7970 O.2    70  SER70      -0.2866
     47  CB        61.0070    1.0320  -13.5730 C.3    70  SER70       0.2089
     48  OG        60.7630   -0.1620  -12.8360 O.3    70  SER70      -0.2183
     49  N         59.8730   -3.0910  -15.1550 N.3    72  GLY72      -0.1210
     50  CA        59.6760   -4.1760  -14.1990 C.3    72  GLY72       0.1956
     51  C         58.6610   -3.8580  -13.1220 C.2    72  GLY72       0.2611
     52  O         57.9060   -4.7410  -12.6940 O.2    72  GLY72      -0.2717
     53  N         58.6320   -2.6000  -12.6780 N.am   73  ALA73      -0.1979
     54  CA        57.6900   -2.1760  -11.6400 C.3    73  ALA73       0.1597
     55  C         56.2440   -2.4360  -12.0620 C.2    73  ALA73       0.2287
     56  O         55.4620   -2.9480  -11.2810 O.2    73  ALA73      -0.2864
     57  CB        57.9010   -0.6960  -11.2710 C.3    73  ALA73       0.0319
     58  N         55.3360   -6.5080  -12.1850 N.3    76  ILE76      -0.1231
     59  CA        55.0600   -7.1890  -10.9080 C.3    76  ILE76       0.1692
     60  C         53.9160   -6.5730  -10.1120 C.2    76  ILE76       0.2592
     61  O         53.1830   -7.3000   -9.4430 O.2    76  ILE76      -0.2718
     62  CB        56.3160   -7.3110   -9.9670 C.3    76  ILE76       0.0266
     63  CG1       57.0030   -5.9580   -9.7560 C.3    76  ILE76       0.0019
     64  CG2       57.3120   -8.3570  -10.4950 C.3    76  ILE76       0.0020
     65  CD1       57.6120   -5.8140   -8.3770 C.3    76  ILE76       0.0001
     66  N         53.7580   -5.2490  -10.1520 N.am   77  THR77      -0.1953
     67  CA        52.6800   -4.6080   -9.3900 C.3    77  THR77       0.1897
     68  C         51.3480   -4.6220  -10.1410 C.2    77  THR77       0.2313
     69  O         50.2850   -4.6170   -9.5090 O.2    77  THR77      -0.2863
     70  CB        53.0060   -3.1410   -8.9730 C.3    77  THR77       0.1794
     71  OG1       52.9870   -2.2820  -10.1180 O.3    77  THR77      -0.2208
     72  CG2       54.3580   -3.0540   -8.2820 C.3    77  THR77       0.0378
     73  N         57.6330   -5.3220    5.9290 N.3   116  HIS116     -0.1241
     74  CA        58.6650   -6.2390    5.4550 C.3   116  HIS116      0.1621
     75  C         59.7520   -5.4650    4.6890 C.2   116  HIS116      0.2264
     76  O         59.4690   -4.8270    3.6780 O.2   116  HIS116     -0.2867
     77  CB        58.0210   -7.3250    4.5850 C.3   116  HIS116      0.0745
     78  CG        58.9960   -8.2200    3.8960 C.ar  116  HIS116      0.0817
     79  ND1       59.4170   -9.4120    4.4400 N.ar  116  HIS116     -0.2268
     80  CD2       59.6240   -8.1070    2.7010 C.ar  116  HIS116      0.1154
     81  CE1       60.2850   -9.9830    3.6230 C.ar  116  HIS116      0.1986
     82  NE2       60.4290   -9.2120    2.5580 N.ar  116  HIS116     -0.2212
     83  N         63.2830    0.1610    2.8150 N.3   121  TYR121     -0.1227
     84  CA        62.4330    0.6530    1.7250 C.3   121  TYR121      0.1736
     85  C         61.2150    1.4470    2.2080 C.2   121  TYR121      0.2595
     86  O         61.1670    2.6600    2.0310 O.2   121  TYR121     -0.2718
     87  CB        62.0100   -0.5000    0.7910 C.3   121  TYR121      0.0548
     88  CG        61.5350   -0.0190   -0.5700 C.ar  121  TYR121     -0.0200
     89  CD1       62.4450    0.2590   -1.5800 C.ar  121  TYR121     -0.0009
     90  CD2       60.1730    0.1850   -0.8360 C.ar  121  TYR121     -0.0009
     91  CE1       62.0200    0.7130   -2.8180 C.ar  121  TYR121      0.0417
     92  CE2       59.7430    0.6350   -2.0790 C.ar  121  TYR121      0.0417
     93  CZ        60.6810    0.8970   -3.0600 C.ar  121  TYR121      0.1957
     94  OH        60.2970    1.3280   -4.3080 O.3   121  TYR121     -0.2866
     95  N         60.2470    0.7750    2.8230 N.am  122  ASP122     -0.1974
     96  CA        58.9440    1.3740    3.0850 C.3   122  ASP122      0.1709
     97  C         58.9970    2.6330    3.9570 C.2   122  ASP122      0.2293
     98  O         58.4010    3.6430    3.6050 O.2   122  ASP122     -0.2864
     99  CB        57.9800    0.3550    3.7020 C.3   122  ASP122      0.1436
    100  CG        57.7220   -0.8420    2.7960 C.2   122  ASP122      0.3671
    101  OD1       58.4500   -1.0430    1.8140 O.co2 122  ASP122     -0.2456
    102  OD2       56.7940   -1.6080    3.0690 O.co2 122  ASP122     -0.2456
    103  N         52.9310   -8.4390   -4.6070 N.3   178  HIS178     -0.1241
    104  CA        53.1690   -7.0900   -5.1310 C.3   178  HIS178      0.1621
    105  C         51.9010   -6.2770   -5.4100 C.2   178  HIS178      0.2264
    106  O         51.8680   -5.4250   -6.2800 O.2   178  HIS178     -0.2867
    107  CB        54.1000   -7.1520   -6.3320 C.3   178  HIS178      0.0745
    108  CG        55.3850   -7.8590   -6.0420 C.ar  178  HIS178      0.0817
    109  ND1       56.4240   -7.2600   -5.3630 N.ar  178  HIS178     -0.2268
    110  CD2       55.7950   -9.1190   -6.3250 C.ar  178  HIS178      0.1154
    111  CE1       57.4200   -8.1210   -5.2410 C.ar  178  HIS178      0.1986
    112  NE2       57.0640   -9.2570   -5.8170 N.ar  178  HIS178     -0.2212
    113  N         50.1430   -8.2120   -0.0730 N.3   183  ASP183     -0.1239
    114  CA        51.3690   -8.3300    0.7030 C.3   183  ASP183      0.1674
    115  C         51.2330   -8.0660    2.2020 C.2   183  ASP183      0.2266
    116  O         51.9720   -8.6510    2.9860 O.2   183  ASP183     -0.2867
    117  CB        52.4310   -7.4120    0.0920 C.3   183  ASP183      0.1410
    118  CG        52.9790   -7.9660   -1.2070 C.2   183  ASP183      0.3668
    119  OD1       52.5770   -9.0900   -1.5720 O.co2 183  ASP183     -0.2456
    120  OD2       53.7990   -7.2920   -1.8650 O.co2 183  ASP183     -0.2456
@<TRIPOS>BOND
     1    49    50    1
     2    45    46    2
     3    45    44    1
     4    44    43    1
     5    44    47    1
     6    50    51    1
     7    47    48    1
     8    51    52    2
     9    51    53   am
    10    53    54    1
    11    58    59    1
    12    55    54    1
    13    55    56    2
    14    54    57    1
    15    59    60    1
    16    59    62    1
    17    64    62    1
    18    66    60   am
    19    66    67    1
    20    68    69    2
    21    68    67    1
    22    71    70    1
    23    60    61    2
    24    62    63    1
    25    63    65    1
    26    67    70    1
    27    70    72    1
    28    32    31    1
    29    32    33    1
    30    41    40    1
    31    40    39    1
    32    40    42    1
    33    29    28    2
    34    35    33   am
    35    35    36    1
    36    33    34    2
    37    39    36    1
    38    28    27    1
    39    36    37    1
    40    38    37    2
    41   107   108    1
    42   107   104    1
    43   110   108   ar
    44   110   112   ar
    45   106   105    2
    46   108   109   ar
    47   112   111   ar
    48    27    26    1
    49    27    30    1
    50   105   104    1
    51   109   111   ar
    52    26    19   am
    53   104   103    1
    54    21    22    1
    55    21    18    1
    56    24    23   ar
    57    22    23    1
    58    19    20    2
    59    19    18    1
    60    94    93    1
    61    23    25   ar
    62    18    17    1
    63    93    91   ar
    64    93    92   ar
    65    91    89   ar
    66    17    11   am
    67    92    90   ar
    68   120   118   ar
    69    89    88   ar
    70   119   118   ar
    71    11    12    2
    72    11    10    1
    73   118   117    1
    74    90    88   ar
    75    88    87    1
    76    10    13    1
    77    10     9    1
    78     8     6   ar
    79   113   114    1
    80    13    14    1
    81   117   114    1
    82   114   115    1
    83    87    84    1
    84     9     3   am
    85     6     7   ar
    86     6     5    1
    87    15    14    1
    88    14    16    1
    89     3     4    2
    90     3     2    1
    91    84    85    1
    92    84    83    1
    93   101   100   ar
    94     5     2    1
    95    86    85    2
    96   115   116    2
    97    85    95   am
    98    82    80   ar
    99    82    81   ar
   100     2     1    1
   101    80    78   ar
   102   100   102   ar
   103   100    99    1
   104    95    96    1
   105    96    99    1
   106    96    97    1
   107    98    97    2
   108    81    79   ar
   109    76    75    2
   110    78    79   ar
   111    78    77    1
   112    77    74    1
   113    75    74    1
   114    74    73    1
