@<TRIPOS>MOLECULE
tmp/2o4jA00.pdb
 124 117 0 0 0
SMALL
GASTEIGER

@<TRIPOS>ATOM
      1  N         64.8490   -0.4040    3.9680 N.3    53  ILE53      -0.1231
      2  CA        64.7220   -1.7840    4.4830 C.3    53  ILE53       0.1692
      3  C         64.9130   -1.8260    6.0040 C.2    53  ILE53       0.2591
      4  O         64.1500   -2.4920    6.7160 O.2    53  ILE53      -0.2718
      5  CB        65.7050   -2.7770    3.8010 C.3    53  ILE53       0.0266
      6  CG1       65.2820   -3.0880    2.3570 C.3    53  ILE53       0.0019
      7  CG2       65.7020   -4.1100    4.5400 C.3    53  ILE53       0.0020
      8  CD1       66.4340   -3.7430    1.5300 C.3    53  ILE53       0.0001
      9  N         65.9350   -1.1320    6.5030 N.am   54  GLN54      -0.1979
     10  CA        66.2110   -1.0810    7.9440 C.3    54  GLN54       0.1601
     11  C         64.9980   -0.5250    8.6940 C.2    54  GLN54       0.2287
     12  O         64.6100   -1.0350    9.7500 O.2    54  GLN54      -0.2864
     13  CB        67.4400   -0.2140    8.1850 C.3    54  GLN54       0.0394
     14  CG        68.7380   -0.8670    7.7270 C.3    54  GLN54       0.0908
     15  CD        69.9570   -0.1270    8.2240 C.2    54  GLN54       0.2608
     16  OE1       70.1580    0.0320    9.4470 O.2    54  GLN54      -0.2717
     17  NE2       70.7800    0.3470    7.2910 N.am   54  GLN54      -0.0878
     18  N         61.9960   -2.9320    8.7340 N.3    57  ILE57      -0.1245
     19  CA        62.2360   -3.9550    9.7920 C.3    57  ILE57       0.1561
     20  C         61.8710   -3.4340   11.1770 C.2    57  ILE57       0.2260
     21  O         61.1910   -4.1080   11.9330 O.2    57  ILE57      -0.2867
     22  CB        63.6860   -4.4960    9.7900 C.3    57  ILE57       0.0252
     23  CG1       63.9810   -5.1530    8.4550 C.3    57  ILE57       0.0019
     24  CG2       63.8760   -5.5210   10.9570 C.3    57  ILE57       0.0019
     25  CD1       65.5100   -5.2460    8.0920 C.3    57  ILE57       0.0001
     26  N         58.8150   -5.1080   13.5720 N.3    61  LYS61      -0.1241
     27  CA        59.0640   -5.7180   14.8970 C.3    61  LYS61       0.1604
     28  C         58.0740   -5.2420   15.9430 C.2    61  LYS61       0.2264
     29  O         57.8380   -5.9350   16.9430 O.2    61  LYS61      -0.2867
     30  CB        60.4870   -5.4480   15.3900 C.3    61  LYS61       0.0527
     31  CG        61.5600   -5.9650   14.4750 C.2    61  LYS61      -0.0273
     32  CD        62.9890   -5.9300   15.0260 C.2    61  LYS61      -0.0103
     33  CE        63.2020   -5.1850   16.3270 C.3    61  LYS61       0.1350
     34  NZ        64.6730   -5.1650   16.6420 N.3    61  LYS61      -0.1262
     35  N         53.6670   -9.7970   15.8680 N.3    66  PHE66      -0.1241
     36  CA        54.8470  -10.1230   15.0320 C.3    66  PHE66       0.1605
     37  C         55.9340  -10.8540   15.8280 C.2    66  PHE66       0.2264
     38  O         56.5580  -11.7610   15.2950 O.2    66  PHE66      -0.2867
     39  CB        55.4450   -8.8660   14.3510 C.3    66  PHE66       0.0534
     40  CG        56.4820   -9.1670   13.2580 C.ar   66  PHE66      -0.0203
     41  CD1       56.0770   -9.5190   11.9620 C.ar   66  PHE66      -0.0042
     42  CD2       57.8560   -9.0710   13.5290 C.ar   66  PHE66      -0.0042
     43  CE1       57.0050   -9.7620   10.9440 C.ar   66  PHE66      -0.0003
     44  CE2       58.8130   -9.3260   12.5180 C.ar   66  PHE66      -0.0003
     45  CZ        58.3770   -9.6580   11.2140 C.ar   66  PHE66      -0.0000
     46  N         61.7040  -16.5930   14.2080 N.3    71  SER71      -0.1202
     47  CA        62.5990  -15.7740   13.3940 C.3    71  SER71       0.2020
     48  C         62.6480  -16.2360   11.9180 C.2    71  SER71       0.2618
     49  O         62.7140  -15.4050   11.0080 O.2    71  SER71      -0.2717
     50  CB        63.9810  -15.7130   14.0280 C.3    71  SER71       0.2103
     51  OG        64.7180  -16.8500   13.6500 O.3    71  SER71      -0.2182
     52  N         62.6060  -17.5450   11.6700 N.am   72  ASP72      -0.1973
     53  CA        62.4560  -18.0540   10.2930 C.3    72  ASP72       0.1709
     54  C         61.2970  -17.3840    9.5290 C.2    72  ASP72       0.2293
     55  O         61.4920  -16.8940    8.4160 O.2    72  ASP72      -0.2864
     56  CB        62.2420  -19.5770   10.2690 C.3    72  ASP72       0.1436
     57  CG        63.5440  -20.3800   10.0870 C.2    72  ASP72       0.3671
     58  OD1       64.6540  -19.8040   10.1120 O.co2  72  ASP72      -0.2456
     59  OD2       63.4390  -21.6270    9.9140 O.co2  72  ASP72      -0.2456
     60  N         59.6040  -14.6810   10.4730 N.3    74  GLN74      -0.1231
     61  CA        59.8680  -13.2300   10.4590 C.3    74  GLN74       0.1698
     62  C         60.7290  -12.8660    9.2580 C.2    74  GLN74       0.2592
     63  O         60.4290  -11.9180    8.5330 O.2    74  GLN74      -0.2718
     64  CB        60.5320  -12.7670   11.7570 C.3    74  GLN74       0.0381
     65  CG        59.6290  -12.8910   12.9810 C.3    74  GLN74       0.0905
     66  CD        60.2660  -12.3560   14.2590 C.2    74  GLN74       0.2608
     67  OE1       59.7320  -12.5540   15.3570 O.2    74  GLN74      -0.2717
     68  NE2       61.3980  -11.6860   14.1320 N.am   74  GLN74      -0.0878
     69  N         61.7940  -13.6350    9.0410 N.am   75  ILE75      -0.1980
     70  CA        62.6620  -13.4720    7.8680 C.3    75  ILE75       0.1595
     71  C         61.9330  -13.6160    6.5230 C.2    75  ILE75       0.2287
     72  O         62.0490  -12.7360    5.6730 O.2    75  ILE75      -0.2864
     73  CB        63.9290  -14.4010    7.9480 C.3    75  ILE75       0.0276
     74  CG1       64.8730  -13.9040    9.0550 C.3    75  ILE75       0.0022
     75  CG2       64.6460  -14.4820    6.5860 C.3    75  ILE75       0.0022
     76  CD1       66.0700  -14.8230    9.3490 C.3    75  ILE75       0.0001
     77  N         59.5690  -10.5970    5.8870 N.3    78  LEU78      -0.1231
     78  CA        60.3170   -9.3600    5.6160 C.3    78  LEU78       0.1693
     79  C         61.0060   -9.3780    4.2650 C.2    78  LEU78       0.2591
     80  O         60.9260   -8.4130    3.5010 O.2    78  LEU78      -0.2718
     81  CB        61.2810   -9.0370    6.7610 C.3    78  LEU78       0.0284
     82  CG        60.5170   -8.3730    7.9070 C.3    78  LEU78       0.0019
     83  CD1       61.2640   -8.5920    9.1890 C.3    78  LEU78       0.0001
     84  CD2       60.3080   -6.8770    7.6220 C.3    78  LEU78       0.0001
     85  N         61.6380  -10.5010    3.9250 N.am   79  LYS79      -0.1980
     86  CA        62.2340  -10.6460    2.5970 C.3    79  LYS79       0.1596
     87  C         61.1980  -10.4810    1.4900 C.2    79  LYS79       0.2287
     88  O         61.4250   -9.7750    0.5100 O.2    79  LYS79      -0.2864
     89  CB        62.8580  -12.0300    2.4490 C.3    79  LYS79       0.0298
     90  CG        64.2440  -12.1200    2.9940 C.3    79  LYS79       0.0038
     91  CD        64.9120  -13.3970    2.4990 C.3    79  LYS79       0.0206
     92  CE        65.6380  -13.1890    1.1760 C.3    79  LYS79       0.1093
     93  NZ        66.3350  -14.4370    0.7770 N.3    79  LYS79      -0.1314
     94  N         75.4420   -4.3950    1.1210 N.3   231  PRO231     -0.2102
     95  CA        75.3090   -5.7830    1.6380 C.3   231  PRO231      0.1504
     96  C         73.8690   -6.1430    2.0710 C.2   231  PRO231      0.2575
     97  O         73.4130   -7.2570    1.8080 O.2   231  PRO231     -0.2718
     98  CB        76.2940   -5.8100    2.8300 C.3   231  PRO231      0.0282
     99  CG        77.2710   -4.7150    2.5300 C.3   231  PRO231      0.0208
    100  CD        76.4770   -3.6360    1.8460 C.3   231  PRO231      0.0893
    101  N         73.1580   -5.2350    2.7380 N.am  232  LEU232     -0.1980
    102  CA        71.7610   -5.5230    3.1170 C.3   232  LEU232      0.1596
    103  C         70.8340   -5.7310    1.9220 C.2   232  LEU232      0.2287
    104  O         70.0180   -6.6840    1.9160 O.2   232  LEU232     -0.2864
    105  CB        71.1990   -4.4420    4.0590 C.3   232  LEU232      0.0297
    106  CG        69.8100   -4.7290    4.6580 C.3   232  LEU232      0.0022
    107  CD1       69.7830   -6.0080    5.5000 C.3   232  LEU232      0.0001
    108  CD2       69.3550   -3.4800    5.4900 C.3   232  LEU232      0.0001
    109  N         71.5050   -9.0620    0.5310 N.3   235  GLU235     -0.1231
    110  CA        71.0080  -10.1530    1.3740 C.3   235  GLU235      0.1699
    111  C         69.4850  -10.3080    1.2180 C.2   235  GLU235      0.2592
    112  O         68.9580  -11.4230    1.1010 O.2   235  GLU235     -0.2718
    113  CB        71.3830   -9.9100    2.8350 C.3   235  GLU235      0.0402
    114  CG        70.9740  -11.0450    3.7450 C.3   235  GLU235      0.1161
    115  CD        71.2460  -10.7460    5.1860 C.2   235  GLU235      0.3649
    116  OE1       70.2760  -10.5190    5.9220 O.co2 235  GLU235     -0.2457
    117  OE2       72.4250  -10.7130    5.5860 O.co2 235  GLU235     -0.2457
    118  N         68.7800   -9.1790    1.2230 N.am  236  VAL236     -0.1980
    119  CA        67.3150   -9.1920    1.1800 C.3   236  VAL236      0.1595
    120  C         66.7260   -9.5260   -0.2110 C.2   236  VAL236      0.2287
    121  O         65.8140  -10.3530   -0.3140 O.2   236  VAL236     -0.2864
    122  CB        66.7580   -7.8520    1.7160 C.3   236  VAL236      0.0276
    123  CG1       65.2400   -7.7460    1.4890 C.3   236  VAL236      0.0022
    124  CG2       67.1360   -7.6940    3.1940 C.3   236  VAL236      0.0022
@<TRIPOS>BOND
     1   121   120    2
     2   120   119    1
     3    88    87    2
     4   109   110    1
     5    93    92    1
     6   112   111    2
     7    94    95    1
     8    94   100    1
     9    92    91    1
    10   119   118    1
    11   119   122    1
    12   111   118   am
    13   111   110    1
    14   110   113    1
    15   123   122    1
    16    87    86    1
    17     8     6    1
    18    95    96    1
    19    95    98    1
    20   122   124    1
    21    97    96    2
    22   100    99    1
    23   104   103    2
    24   103   102    1
    25    96   101   am
    26     6     5    1
    27    89    86    1
    28    89    90    1
    29    91    90    1
    30    99    98    1
    31    86    85    1
    32   101   102    1
    33   113   114    1
    34   102   105    1
    35    80    79    2
    36   114   115    1
    37     5     2    1
    38     5     7    1
    39    85    79   am
    40     1     2    1
    41   105   106    1
    42    79    78    1
    43     2     3    1
    44   106   108    1
    45   106   107    1
    46   115   117   ar
    47   115   116   ar
    48    78    77    1
    49    78    81    1
    50    72    71    2
    51     3     9   am
    52     3     4    2
    53     9    10    1
    54    71    70    1
    55    75    73    1
    56    81    82    1
    57    17    15   am
    58    84    82    1
    59    14    13    1
    60    14    15    1
    61    70    73    1
    62    70    69    1
    63    82    83    1
    64    10    13    1
    65    10    11    1
    66    73    74    1
    67    25    23    1
    68    15    16    2
    69    55    54    2
    70    23    22    1
    71    63    62    2
    72    11    12    2
    73    18    19    1
    74    69    62   am
    75    74    76    1
    76    62    61    1
    77    54    53    1
    78    22    19    1
    79    22    24    1
    80    19    20    1
    81    59    57   ar
    82    57    58   ar
    83    57    56    1
    84    56    53    1
    85    53    52    1
    86    61    60    1
    87    61    64    1
    88    43    45   ar
    89    43    41   ar
    90    49    48    2
    91    20    21    2
    92    45    44   ar
    93    52    48   am
    94    64    65    1
    95    48    47    1
    96    41    40   ar
    97    44    42   ar
    98    65    66    1
    99    40    42   ar
   100    40    39    1
   101    47    50    1
   102    47    46    1
   103    26    27    1
   104    51    50    1
   105    68    66   am
   106    66    67    2
   107    39    36    1
   108    31    32    2
   109    31    30    1
   110    27    30    1
   111    27    28    1
   112    32    33    1
   113    36    37    1
   114    36    35    1
   115    38    37    2
   116    28    29    2
   117    33    34    1
