@<TRIPOS>MOLECULE
tmp/2o4lA00.pdb
 104 97 0 0 0
SMALL
GASTEIGER

@<TRIPOS>ATOM
      1  N         -2.8630   19.4430   17.0660 N.3     8  ARG8       -0.1245
      2  CA        -4.0890   18.7980   16.5770 C.3     8  ARG8        0.1563
      3  C         -3.7530   17.3870   16.1050 C.2     8  ARG8        0.2260
      4  O         -2.7790   17.2010   15.3730 O.2     8  ARG8       -0.2867
      5  CB        -4.6830   19.6080   15.4210 C.3     8  ARG8        0.0307
      6  CG        -5.2780   20.9230   15.8590 C.3     8  ARG8        0.0489
      7  CD        -5.8460   21.7180   14.7000 C.3     8  ARG8        0.2205
      8  NE        -6.4080   22.9850   15.1670 N.pl3   8  ARG8       -0.0865
      9  CZ        -6.8210   23.9710   14.3740 C.cat   8  ARG8        0.5346
     10  NH1       -6.7870   23.8330   13.0550 N.pl3   8  ARG8        0.1354
     11  NH2       -7.3090   25.0800   14.9110 N.pl3   8  ARG8        0.1354
     12  N         -9.0350   15.0350   11.3350 N.3    23  LEU23      -0.1245
     13  CA        -8.8460   15.2660   12.7590 C.3    23  LEU23       0.1561
     14  C         -9.5110   14.1710   13.6030 C.2    23  LEU23       0.2260
     15  O        -10.7090   13.9280   13.4740 O.2    23  LEU23      -0.2867
     16  CB        -9.4350   16.6330   13.0820 C.3    23  LEU23       0.0270
     17  CG        -9.3290   17.1260   14.5180 C.3    23  LEU23       0.0019
     18  CD1       -7.8950   17.4180   14.9300 C.3    23  LEU23       0.0001
     19  CD2      -10.1910   18.3650   14.6540 C.3    23  LEU23       0.0001
     20  N        -11.3300   13.1530   16.5390 N.3    25  ASP25      -0.1239
     21  CA       -12.1400   13.9780   17.4360 C.3    25  ASP25       0.1674
     22  C        -13.0340   13.1380   18.3410 C.2    25  ASP25       0.2266
     23  O        -14.1230   12.7100   17.9390 O.2    25  ASP25      -0.2867
     24  CB       -12.9770   14.9510   16.6120 C.3    25  ASP25       0.1410
     25  CG       -13.7740   15.9200   17.4730 C.2    25  ASP25       0.3668
     26  OD1      -13.8290   15.7680   18.7070 O.co2  25  ASP25      -0.2456
     27  OD2      -14.2940   16.8840   16.8790 O.co2  25  ASP25      -0.2456
     28  N        -14.7910   14.1270   20.6910 N.3    27  GLY27      -0.1210
     29  CA       -15.9780   14.8870   21.0230 C.3    27  GLY27       0.1956
     30  C        -17.1020   14.7280   20.0220 C.2    27  GLY27       0.2612
     31  O        -18.2570   14.9940   20.3730 O.2    27  GLY27      -0.2717
     32  N        -16.7840   14.2960   18.8020 N.am   28  ALA28      -0.1965
     33  CA       -17.7580   14.1860   17.7100 C.3    28  ALA28       0.1728
     34  C        -18.4550   12.8310   17.7160 C.2    28  ALA28       0.2616
     35  O        -17.7830   11.7950   17.6780 O.2    28  ALA28      -0.2715
     36  CB       -17.0580   14.3960   16.3920 C.3    28  ALA28       0.0334
     37  N        -19.7880   12.8200   17.7210 N.am   29  ASP29      -0.1957
     38  CA       -20.5120   11.5430   17.5840 C.3    29  ASP29       0.1840
     39  C        -20.2270   10.9070   16.2280 C.2    29  ASP29       0.2622
     40  O        -20.0890    9.6900   16.1080 O.2    29  ASP29      -0.2715
     41  CB       -22.0340   11.7290   17.6650 C.3    29  ASP29       0.1450
     42  CG       -22.5190   12.2360   19.0050 C.2    29  ASP29       0.3671
     43  OD1      -21.8130   12.1530   20.0260 O.co2  29  ASP29      -0.2456
     44  OD2      -23.6760   12.7050   19.0400 O.co2  29  ASP29      -0.2456
     45  N        -20.1550   11.7690   15.2070 N.am   30  ASP30      -0.1971
     46  CA       -20.1700   11.3700   13.8040 C.3    30  ASP30       0.1709
     47  C        -18.9080   11.8130   13.0820 C.2    30  ASP30       0.2293
     48  O        -18.2030   12.6940   13.5370 O.2    30  ASP30      -0.2864
     49  CB       -21.3510   12.0280   13.0720 C.3    30  ASP30       0.1436
     50  CG       -22.6900   11.8090   13.7540 C.2    30  ASP30       0.3671
     51  OD1      -22.8880   10.7600   14.4020 O.co2  30  ASP30      -0.2456
     52  OD2      -23.5550   12.7020   13.6180 O.co2  30  ASP30      -0.2456
     53  N        -17.4920   13.5890    9.7810 N.3    32  VAL32      -0.1245
     54  CA       -17.9660   14.5830    8.8230 C.3    32  VAL32       0.1561
     55  C        -16.7770   15.0900    8.0180 C.2    32  VAL32       0.2260
     56  O        -15.7680   15.5440    8.5750 O.2    32  VAL32      -0.2867
     57  CB       -18.8740   15.7100    9.4300 C.3    32  VAL32       0.0252
     58  CG1      -18.1520   16.4850   10.5110 C.3    32  VAL32       0.0019
     59  CG2      -19.3800   16.6510    8.3220 C.3    32  VAL32       0.0019
     60  N        -26.5950   18.3260   11.5800 N.3    47  ILE47      -0.1231
     61  CA       -25.7640   18.0310   12.7370 C.3    47  ILE47       0.1692
     62  C        -25.4010   19.3450   13.4110 C.2    47  ILE47       0.2593
     63  O        -25.2030   20.3680   12.7440 O.2    47  ILE47      -0.2718
     64  CB       -24.4850   17.2230   12.3650 C.3    47  ILE47       0.0266
     65  CG1      -23.6350   17.9640   11.3250 C.3    47  ILE47       0.0019
     66  CG2      -24.8790   15.8200   11.8890 C.3    47  ILE47       0.0020
     67  CD1      -22.2540   17.3760   11.1010 C.3    47  ILE47       0.0001
     68  N        -25.3540   19.3250   14.7350 N.am   48  GLY48      -0.1942
     69  CA       -25.0850   20.5320   15.4890 C.3    48  GLY48       0.2014
     70  C        -23.8110   20.3510   16.2630 C.2    48  GLY48       0.2639
     71  O        -23.4310   19.2190   16.6270 O.2    48  GLY48      -0.2714
     72  N        -23.1480   21.4730   16.5120 N.am   49  GLY49      -0.1939
     73  CA       -22.0110   21.5260   17.4260 C.3    49  GLY49       0.2014
     74  C        -21.7390   22.9720   17.7820 C.2    49  GLY49       0.2638
     75  O        -22.6590   23.7950   17.7760 O.2    49  GLY49      -0.2714
     76  N        -20.4840   23.2920   18.0810 N.am   50  VAL50      -0.1977
     77  CA       -20.1240   24.6750   18.3770 C.3    50  VAL50       0.1596
     78  C        -20.3600   25.5090   17.1200 C.2    50  VAL50       0.2287
     79  O        -19.9760   25.1100   16.0220 O.2    50  VAL50      -0.2864
     80  CB       -18.6730   24.7760   18.8640 C.3    50  VAL50       0.0276
     81  CG1      -18.2080   26.2290   18.9350 C.3    50  VAL50       0.0022
     82  CG2      -18.5440   24.1090   20.2180 C.3    50  VAL50       0.0022
     83  N        -15.4860   22.8420    8.6480 N.3    81  PRO81      -0.2102
     84  CA       -14.2370   23.5830    8.3910 C.3    81  PRO81       0.1504
     85  C        -12.9930   22.6890    8.2900 C.2    81  PRO81       0.2575
     86  O        -11.9650   23.1300    7.7680 O.2    81  PRO81      -0.2718
     87  CB       -14.1390   24.5300    9.5950 C.3    81  PRO81       0.0282
     88  CG       -14.8430   23.8200   10.6650 C.3    81  PRO81       0.0208
     89  CD       -15.9810   23.0790   10.0170 C.3    81  PRO81       0.0893
     90  N        -13.0920   21.4520    8.7820 N.am   82  VAL82      -0.1980
     91  CA       -11.9870   20.4950    8.7430 C.3    82  VAL82       0.1595
     92  C        -12.6060   19.0900    8.6540 C.2    82  VAL82       0.2287
     93  O        -13.7220   18.9000    9.1020 O.2    82  VAL82      -0.2864
     94  CB       -11.0600   20.6260    9.9940 C.3    82  VAL82       0.0276
     95  CG1      -10.1320   19.4310   10.1450 C.3    82  VAL82       0.0022
     96  CG2      -10.2360   21.8990    9.9270 C.3    82  VAL82       0.0022
     97  N        -13.3160   15.5680    9.9660 N.3    84  ILE84      -0.1245
     98  CA       -13.4010   15.1180   11.3460 C.3    84  ILE84       0.1561
     99  C        -13.7290   13.6320   11.3790 C.2    84  ILE84       0.2260
    100  O        -14.7490   13.2080   10.8180 O.2    84  ILE84      -0.2867
    101  CB       -14.4840   15.9120   12.0970 C.3    84  ILE84       0.0252
    102  CG1      -14.0360   17.3660   12.2780 C.3    84  ILE84       0.0019
    103  CG2      -14.7780   15.2690   13.4520 C.3    84  ILE84       0.0019
    104  CD1      -15.1270   18.2840   12.7560 C.3    84  ILE84       0.0001
@<TRIPOS>BOND
     1    86    85    2
     2    55    56    2
     3    55    54    1
     4    85    84    1
     5    85    90   am
     6    59    57    1
     7    84    83    1
     8    84    87    1
     9    83    89    1
    10    92    91    1
    11    92    93    2
    12    91    90    1
    13    91    94    1
    14    54    57    1
    15    54    53    1
    16    57    58    1
    17    87    88    1
    18    96    94    1
    19    97    98    1
    20    94    95    1
    21    89    88    1
    22   100    99    2
    23    67    65    1
    24    65    64    1
    25    12    13    1
    26    98    99    1
    27    98   101    1
    28    60    61    1
    29    66    64    1
    30   101   102    1
    31   101   103    1
    32   102   104    1
    33    64    61    1
    34    61    62    1
    35    63    62    2
    36    13    16    1
    37    13    14    1
    38    10     9    1
    39    49    50    1
    40    49    46    1
    41    16    17    1
    42    47    48    2
    43    47    46    1
    44    62    68   am
    45    15    14    2
    46    52    50   ar
    47    50    51   ar
    48    46    45    1
    49     9    11    1
    50     9     8    2
    51    17    19    1
    52    17    18    1
    53     7     8    1
    54     7     6    1
    55    68    69    1
    56    45    39   am
    57     4     3    2
    58     5     6    1
    59     5     2    1
    60    69    70    1
    61    79    78    2
    62     3     2    1
    63    40    39    2
    64    39    38    1
    65    70    72   am
    66    70    71    2
    67    36    33    1
    68    72    73    1
    69    20    21    1
    70     2     1    1
    71    24    21    1
    72    24    25    1
    73    27    25   ar
    74    78    77    1
    75    73    74    1
    76    21    22    1
    77    25    26   ar
    78    38    41    1
    79    38    37    1
    80    41    42    1
    81    35    34    2
    82    33    34    1
    83    33    32    1
    84    34    37   am
    85    75    74    2
    86    74    76   am
    87    23    22    2
    88    76    77    1
    89    77    80    1
    90    32    30   am
    91    80    81    1
    92    80    82    1
    93    42    44   ar
    94    42    43   ar
    95    30    31    2
    96    30    29    1
    97    28    29    1
