@<TRIPOS>MOLECULE
tmp/2o4vB00.pdb
 76 71 0 0 0
SMALL
GASTEIGER

@<TRIPOS>ATOM
      1  N         91.1140   15.3460   30.0050 N.3   110  PHE110     -0.1227
      2  CA        90.2670   15.0040   28.8530 C.3   110  PHE110      0.1736
      3  C         89.6830   16.2670   28.2640 C.2   110  PHE110      0.2596
      4  O         89.2690   17.1660   29.0010 O.2   110  PHE110     -0.2718
      5  CB        89.0950   14.1010   29.2650 C.3   110  PHE110      0.0547
      6  CG        89.5020   12.8440   29.9820 C.ar  110  PHE110     -0.0202
      7  CD1       89.6080   11.6380   29.2940 C.ar  110  PHE110     -0.0042
      8  CD2       89.7400   12.8560   31.3580 C.ar  110  PHE110     -0.0042
      9  CE1       89.9780   10.4590   29.9670 C.ar  110  PHE110     -0.0003
     10  CE2       90.1140   11.6980   32.0330 C.ar  110  PHE110     -0.0003
     11  CZ        90.2310   10.4930   31.3320 C.ar  110  PHE110     -0.0000
     12  N         89.6260   16.3330   26.9400 N.am  111  GLY111     -0.1957
     13  CA        88.9360   17.4210   26.2880 C.3   111  GLY111      0.1869
     14  C         89.8390   18.2200   25.3740 C.2   111  GLY111      0.2309
     15  O         90.7250   17.6690   24.7100 O.2   111  GLY111     -0.2863
     16  N         90.5250   17.2770   20.2010 N.3   149  THR149     -0.1203
     17  CA        90.0360   16.8020   21.4890 C.3   149  THR149      0.1994
     18  C         90.8160   15.5220   21.8210 C.2   149  THR149      0.2618
     19  O         91.0160   14.6700   20.9550 O.2   149  THR149     -0.2717
     20  CB        88.5040   16.5340   21.4380 C.3   149  THR149      0.1784
     21  OG1       87.8450   17.6070   20.7460 O.3   149  THR149     -0.2211
     22  CG2       87.9030   16.4110   22.8280 C.3   149  THR149      0.0376
     23  N         91.2730   15.3950   23.0620 N.am  150  GLY150     -0.1942
     24  CA        92.1070   14.2500   23.4110 C.3   150  GLY150      0.2014
     25  C         92.1710   13.8720   24.8710 C.2   150  GLY150      0.2638
     26  O         91.3450   14.3060   25.6860 O.2   150  GLY150     -0.2714
     27  N         93.1590   13.0390   25.1840 N.am  151  ILE151     -0.1977
     28  CA        93.3990   12.5760   26.5480 C.3   151  ILE151      0.1596
     29  C         94.8820   12.7130   26.8460 C.2   151  ILE151      0.2287
     30  O         95.7160   12.3260   26.0330 O.2   151  ILE151     -0.2864
     31  CB        92.9590   11.1000   26.7470 C.3   151  ILE151      0.0276
     32  CG1       91.4940   10.9160   26.3130 C.3   151  ILE151      0.0022
     33  CG2       93.1830   10.6690   28.1990 C.3   151  ILE151      0.0022
     34  CD1       91.0330    9.4630   26.1940 C.3   151  ILE151      0.0001
     35  N         97.2190   11.4340   23.4370 N.3   167  VAL167     -0.1245
     36  CA        96.6860   11.1300   22.1190 C.3   167  VAL167      0.1561
     37  C         95.5940   12.1680   21.8720 C.2   167  VAL167      0.2260
     38  O         94.8140   12.4770   22.7720 O.2   167  VAL167     -0.2867
     39  CB        96.1620    9.6660   22.0180 C.3   167  VAL167      0.0252
     40  CG1       95.0860    9.3710   23.0910 C.3   167  VAL167      0.0019
     41  CG2       95.6520    9.3540   20.6140 C.3   167  VAL167      0.0019
     42  N         92.6830   13.6660   19.0150 N.3   169  SER169     -0.1217
     43  CA        91.9310   13.6030   17.7540 C.3   169  SER169      0.1889
     44  C         91.9350   14.9890   17.1030 C.2   169  SER169      0.2288
     45  O         91.2310   15.9000   17.5500 O.2   169  SER169     -0.2866
     46  CB        90.5040   13.0940   18.0060 C.3   169  SER169      0.2089
     47  OG        89.6710   13.2520   16.8710 O.3   169  SER169     -0.2183
     48  N         87.8840    9.7780    9.1770 N.3   178  ASP178     -0.1239
     49  CA        88.5190    9.3700   10.4230 C.3   178  ASP178      0.1674
     50  C         89.5860   10.4230   10.7440 C.2   178  ASP178      0.2266
     51  O         90.3810   10.7890    9.8770 O.2   178  ASP178     -0.2867
     52  CB        89.1390    7.9740   10.2630 C.3   178  ASP178      0.1410
     53  CG        89.4860    7.3130   11.5970 C.2   178  ASP178      0.3668
     54  OD1       89.0910    7.8180   12.6700 O.co2 178  ASP178     -0.2456
     55  OD2       90.1580    6.2620   11.5690 O.co2 178  ASP178     -0.2456
     56  N         95.2860   11.2100   14.1200 N.3   181  LYS181     -0.1245
     57  CA        95.5720   11.0020   15.5370 C.3   181  LYS181      0.1561
     58  C         96.9670   11.5020   15.8680 C.2   181  LYS181      0.2260
     59  O         97.9580   11.0630   15.2880 O.2   181  LYS181     -0.2867
     60  CB        95.4060    9.5330   15.9590 C.3   181  LYS181      0.0271
     61  CG        94.0360    8.9100   15.6560 C.3   181  LYS181      0.0035
     62  CD        92.8760    9.6660   16.3280 C.3   181  LYS181      0.0206
     63  CE        91.5530    8.9310   16.1250 C.3   181  LYS181      0.1093
     64  NZ        91.2320    8.7230   14.6640 N.3   181  LYS181     -0.1314
     65  N        100.0720   12.1840   18.5200 N.3   183  TYR183     -0.1241
     66  CA       100.7240   11.5840   19.6760 C.3   183  TYR183      0.1605
     67  C        101.8110   12.5230   20.1690 C.2   183  TYR183      0.2264
     68  O        102.6210   12.9990   19.3770 O.2   183  TYR183     -0.2867
     69  CB       101.3010   10.2110   19.2970 C.3   183  TYR183      0.0534
     70  CG       100.2140    9.2030   18.9970 C.ar  183  TYR183     -0.0201
     71  CD1       99.6620    8.4300   20.0190 C.ar  183  TYR183     -0.0009
     72  CD2       99.7020    9.0550   17.7080 C.ar  183  TYR183     -0.0009
     73  CE1       98.6510    7.5100   19.7610 C.ar  183  TYR183      0.0417
     74  CE2       98.6810    8.1370   17.4390 C.ar  183  TYR183      0.0417
     75  CZ        98.1600    7.3770   18.4740 C.ar  183  TYR183      0.1957
     76  OH        97.1580    6.4660   18.2360 O.3   183  TYR183     -0.2866
@<TRIPOS>BOND
     1    48    49    1
     2    51    50    2
     3    52    49    1
     4    52    53    1
     5    49    50    1
     6    55    53   ar
     7    53    54   ar
     8    56    57    1
     9    64    63    1
    10    59    58    2
    11    57    58    1
    12    57    60    1
    13    61    60    1
    14    61    62    1
    15    63    62    1
    16    47    46    1
    17    44    45    2
    18    44    43    1
    19    74    72   ar
    20    74    75   ar
    21    72    70   ar
    22    43    46    1
    23    43    42    1
    24    76    75    1
    25    75    73   ar
    26    65    66    1
    27    70    69    1
    28    70    71   ar
    29    69    66    1
    30    68    67    2
    31    66    67    1
    32    73    71   ar
    33    16    17    1
    34    41    39    1
    35    21    20    1
    36    19    18    2
    37    20    17    1
    38    20    22    1
    39    17    18    1
    40    18    23   am
    41    37    36    1
    42    37    38    2
    43    39    36    1
    44    39    40    1
    45    36    35    1
    46    23    24    1
    47    24    25    1
    48    15    14    2
    49    25    27   am
    50    25    26    2
    51    27    28    1
    52    14    13    1
    53    30    29    2
    54    34    32    1
    55    13    12    1
    56    32    31    1
    57    28    31    1
    58    28    29    1
    59    31    33    1
    60    12     3   am
    61     3     2    1
    62     3     4    2
    63     2     5    1
    64     2     1    1
    65     5     6    1
    66     7     9   ar
    67     7     6   ar
    68     9    11   ar
    69     6     8   ar
    70    11    10   ar
    71     8    10   ar
