@<TRIPOS>MOLECULE
tmp/2o4vA02.pdb
 103 104 0 0 0
SMALL
GASTEIGER

@<TRIPOS>ATOM
      1  N         53.3890    7.1410   36.9280 N.3   199  VAL199     -0.1231
      2  CA        52.4360    6.7860   35.8780 C.3   199  VAL199      0.1692
      3  C         52.1040    8.0810   35.1490 C.2   199  VAL199      0.2592
      4  O         51.5390    9.0040   35.7390 O.2   199  VAL199     -0.2718
      5  CB        51.1420    6.1340   36.4330 C.3   199  VAL199      0.0266
      6  CG1       50.1160    5.9620   35.3230 C.3   199  VAL199      0.0020
      7  CG2       51.4470    4.7930   37.1030 C.3   199  VAL199      0.0020
      8  N         52.4550    8.1220   33.8660 N.am  200  HIS200     -0.1962
      9  CA        52.5230    9.3510   33.0780 C.3   200  HIS200      0.1787
     10  C         51.8330    9.0940   31.7400 C.2   200  HIS200      0.2620
     11  O         52.2530    8.2220   30.9810 O.2   200  HIS200     -0.2715
     12  CB        54.0140    9.6980   32.8830 C.3   200  HIS200      0.0785
     13  CG        54.2950   10.8800   32.0000 C.ar  200  HIS200      0.0821
     14  ND1       53.9470   10.9280   30.6660 N.ar  200  HIS200     -0.2267
     15  CD2       54.9770   12.0240   32.2480 C.ar  200  HIS200      0.1154
     16  CE1       54.3620   12.0690   30.1440 C.ar  200  HIS200      0.1986
     17  NE2       54.9960   12.7500   31.0810 N.ar  200  HIS200     -0.2212
     18  N         50.7640    9.8370   31.4670 N.am  201  LEU201     -0.1977
     19  CA        50.1150    9.8010   30.1570 C.3   201  LEU201      0.1596
     20  C         49.9560   11.2280   29.6350 C.2   201  LEU201      0.2287
     21  O         49.3480   12.0760   30.2950 O.2   201  LEU201     -0.2864
     22  CB        48.7690    9.0650   30.2330 C.3   201  LEU201      0.0297
     23  CG        47.9410    8.6450   29.0030 C.3   201  LEU201      0.0022
     24  CD1       46.8320    9.6500   28.6900 C.3   201  LEU201      0.0001
     25  CD2       48.7840    8.3940   27.7530 C.3   201  LEU201      0.0001
     26  N         51.4980   11.4000   21.3900 N.3   263  LEU263     -0.1231
     27  CA        51.0030   10.6280   22.5250 C.3   263  LEU263      0.1693
     28  C         52.2100   10.0750   23.2630 C.2   263  LEU263      0.2592
     29  O         53.1130    9.5190   22.6410 O.2   263  LEU263     -0.2718
     30  CB        50.1450    9.4600   22.0280 C.3   263  LEU263      0.0284
     31  CG        48.8610    9.0530   22.7520 C.3   263  LEU263      0.0019
     32  CD1       48.3180    7.7560   22.1470 C.3   263  LEU263      0.0001
     33  CD2       49.0440    8.8850   24.2490 C.3   263  LEU263      0.0001
     34  N         52.2360   10.2220   24.5820 N.am  264  GLU264     -0.1966
     35  CA        53.3600    9.7000   25.3510 C.3   264  GLU264      0.1733
     36  C         52.9620    9.0090   26.6430 C.2   264  GLU264      0.2617
     37  O         51.9210    9.3060   27.2320 O.2   264  GLU264     -0.2715
     38  CB        54.3910   10.7920   25.6330 C.3   264  GLU264      0.0429
     39  CG        53.9310   11.8790   26.5850 C.3   264  GLU264      0.1163
     40  CD        54.9500   12.9990   26.7180 C.2   264  GLU264      0.3649
     41  OE1       55.7270   13.2100   25.7550 O.co2 264  GLU264     -0.2457
     42  OE2       54.9640   13.6690   27.7780 O.co2 264  GLU264     -0.2457
     43  N         53.8190    8.0890   27.0730 N.am  265  GLY265     -0.1940
     44  CA        53.6220    7.3710   28.3220 C.3   265  GLY265      0.2014
     45  C         54.9310    7.1210   29.0370 C.2   265  GLY265      0.2639
     46  O         55.9890    7.0260   28.4050 O.2   265  GLY265     -0.2714
     47  N         54.8580    7.0450   30.3580 N.am  266  ALA266     -0.1963
     48  CA        56.0050    6.6830   31.1860 C.3   266  ALA266      0.1728
     49  C         55.5390    5.9180   32.4150 C.2   266  ALA266      0.2616
     50  O         54.4710    6.1930   32.9620 O.2   266  ALA266     -0.2715
     51  CB        56.8110    7.9180   31.5910 C.3   266  ALA266      0.0334
     52  N         56.3540    4.9610   32.8410 N.am  267  TRP267     -0.1974
     53  CA        56.0440    4.1180   33.9870 C.3   267  TRP267      0.1640
     54  C         57.3360    3.8540   34.7340 C.2   267  TRP267      0.2290
     55  O         58.3410    3.4720   34.1300 O.2   267  TRP267     -0.2864
     56  CB        55.4290    2.8000   33.5130 C.3   267  TRP267      0.0576
     57  CG        54.9900    1.8700   34.6110 C.ar  267  TRP267      0.0006
     58  CD1       53.8910    2.0070   35.4060 C.ar  267  TRP267      0.0946
     59  CD2       55.6270    0.6440   35.0130 C.ar  267  TRP267      0.0152
     60  NE1       53.8040    0.9490   36.2850 N.ar  267  TRP267     -0.2442
     61  CE2       54.8580    0.1000   36.0670 C.ar  267  TRP267      0.0810
     62  CE3       56.7740   -0.0440   34.5880 C.ar  267  TRP267      0.0012
     63  CZ2       55.1970   -1.1030   36.7050 C.ar  267  TRP267      0.0191
     64  CZ3       57.1110   -1.2410   35.2230 C.ar  267  TRP267      0.0001
     65  CH2       56.3240   -1.7550   36.2700 C.ar  267  TRP267      0.0015
     66  N         57.8130    6.0430   26.3910 N.3   276  ALA276     -0.1231
     67  CA        57.5640    5.9790   24.9580 C.3   276  ALA276      0.1694
     68  C         56.8400    7.2210   24.4790 C.2   276  ALA276      0.2592
     69  O         56.0490    7.8050   25.2180 O.2   276  ALA276     -0.2718
     70  CB        56.7460    4.7330   24.6130 C.3   276  ALA276      0.0304
     71  N         57.1050    7.6040   23.2320 N.am  277  GLU277     -0.1966
     72  CA        56.4230    8.7180   22.6010 C.3   277  GLU277      0.1733
     73  C         56.1070    8.3240   21.1830 C.2   277  GLU277      0.2616
     74  O         56.9260    7.7000   20.5190 O.2   277  GLU277     -0.2715
     75  CB        57.2990    9.9830   22.5840 C.3   277  GLU277      0.0429
     76  CG        57.5900   10.5730   23.9600 C.3   277  GLU277      0.1163
     77  CD        58.6610   11.6530   23.9350 C.2   277  GLU277      0.3649
     78  OE1       58.6190   12.5350   23.0420 O.co2 277  GLU277     -0.2457
     79  OE2       59.5510   11.6190   24.8150 O.co2 277  GLU277     -0.2457
     80  N         54.9190    8.7010   20.7300 N.am  278  TYR278     -0.1974
     81  CA        54.5130    8.5290   19.3430 C.3   278  TYR278      0.1639
     82  C         54.0970    9.8930   18.8020 C.2   278  TYR278      0.2290
     83  O         53.4840   10.6820   19.5180 O.2   278  TYR278     -0.2864
     84  CB        53.3470    7.5330   19.2610 C.3   278  TYR278      0.0560
     85  CG        52.7210    7.4420   17.8920 C.ar  278  TYR278     -0.0198
     86  CD1       53.2350    6.5770   16.9280 C.ar  278  TYR278     -0.0009
     87  CD2       51.6260    8.2350   17.5530 C.ar  278  TYR278     -0.0009
     88  CE1       52.6690    6.4970   15.6570 C.ar  278  TYR278      0.0417
     89  CE2       51.0560    8.1700   16.2820 C.ar  278  TYR278      0.0417
     90  CZ        51.5790    7.2910   15.3440 C.ar  278  TYR278      0.1957
     91  OH        51.0160    7.2110   14.0870 O.3   278  TYR278     -0.2866
     92  N         57.8120    6.4400   16.5480 N.3   297  TYR297     -0.1241
     93  CA        57.8120    6.2960   17.9910 C.3   297  TYR297      0.1605
     94  C         59.1760    5.8010   18.4550 C.2   297  TYR297      0.2264
     95  O         60.0040    5.3660   17.6490 O.2   297  TYR297     -0.2867
     96  CB        56.7030    5.3350   18.4410 C.3   297  TYR297      0.0534
     97  CG        56.9840    3.8810   18.1430 C.ar  297  TYR297     -0.0201
     98  CD1       56.6600    3.3330   16.9010 C.ar  297  TYR297     -0.0009
     99  CD2       57.5730    3.0520   19.1020 C.ar  297  TYR297     -0.0009
    100  CE1       56.9160    1.9950   16.6170 C.ar  297  TYR297      0.0417
    101  CE2       57.8390    1.7140   18.8260 C.ar  297  TYR297      0.0417
    102  CZ        57.5050    1.1940   17.5790 C.ar  297  TYR297      0.1957
    103  OH        57.7490   -0.1330   17.2970 O.3   297  TYR297     -0.2866
@<TRIPOS>BOND
     1    91    90    1
     2    90    88   ar
     3    90    89   ar
     4    88    86   ar
     5    89    87   ar
     6    92    93    1
     7   100    98   ar
     8   100   102   ar
     9    98    97   ar
    10    86    85   ar
    11   103   102    1
    12    87    85   ar
    13   102   101   ar
    14    95    94    2
    15    85    84    1
    16    93    96    1
    17    93    94    1
    18    97    96    1
    19    97    99   ar
    20    82    81    1
    21    82    83    2
    22   101    99   ar
    23    84    81    1
    24    81    80    1
    25    74    73    2
    26    80    73   am
    27    73    72    1
    28    26    27    1
    29    30    27    1
    30    30    31    1
    31    32    31    1
    32    27    28    1
    33    75    72    1
    34    75    76    1
    35    72    71    1
    36    29    28    2
    37    31    33    1
    38    78    77   ar
    39    71    68   am
    40    28    34   am
    41    77    76    1
    42    77    79   ar
    43    68    67    1
    44    68    69    2
    45    34    35    1
    46    70    67    1
    47    67    66    1
    48    35    38    1
    49    35    36    1
    50    38    39    1
    51    41    40   ar
    52    39    40    1
    53    36    43   am
    54    36    37    2
    55    40    42   ar
    56    43    44    1
    57    25    23    1
    58    44    45    1
    59    46    45    2
    60    24    23    1
    61    23    22    1
    62    45    47   am
    63    20    19    1
    64    20    21    2
    65    16    14   ar
    66    16    17   ar
    67    19    22    1
    68    19    18    1
    69    47    48    1
    70    14    13   ar
    71    11    10    2
    72    17    15   ar
    73    48    51    1
    74    48    49    1
    75    18    10   am
    76    10     9    1
    77    13    15   ar
    78    13    12    1
    79    49    52   am
    80    49    50    2
    81    52    53    1
    82    12     9    1
    83     9     8    1
    84    56    53    1
    85    56    57    1
    86     8     3   am
    87    53    54    1
    88    55    54    2
    89    62    59   ar
    90    62    64   ar
    91    57    59   ar
    92    57    58   ar
    93    59    61   ar
    94     3     4    2
    95     3     2    1
    96    64    65   ar
    97     6     5    1
    98    58    60   ar
    99     2     5    1
   100     2     1    1
   101    61    60   ar
   102    61    63   ar
   103    65    63   ar
   104     5     7    1
