@<TRIPOS>MOLECULE
tmp/2o4vB01.pdb
 89 86 0 0 0
SMALL
GASTEIGER

@<TRIPOS>ATOM
      1  N         95.3840   43.9960   25.5520 N.3    37  ALA37      -0.1231
      2  CA        95.1470   45.0130   24.5380 C.3    37  ALA37       0.1694
      3  C         96.4870   45.4260   23.9630 C.2    37  ALA37       0.2592
      4  O         97.3490   45.9230   24.6920 O.2    37  ALA37      -0.2718
      5  CB        94.4370   46.2190   25.1550 C.3    37  ALA37       0.0304
      6  N         96.6610   45.2020   22.6630 N.am   38  ASP38      -0.1960
      7  CA        97.9090   45.4860   21.9610 C.3    38  ASP38       0.1840
      8  C         97.7520   46.6390   20.9840 C.2    38  ASP38       0.2622
      9  O         96.7030   46.7910   20.3520 O.2    38  ASP38      -0.2715
     10  CB        98.3680   44.2690   21.1370 C.3    38  ASP38       0.1450
     11  CG        98.8570   43.1070   21.9830 C.2    38  ASP38       0.3671
     12  OD1       98.6380   43.0890   23.2150 O.co2  38  ASP38      -0.2456
     13  OD2       99.4580   42.1830   21.3930 O.co2  38  ASP38      -0.2456
     14  N         98.8090   47.4370   20.8550 N.am   39  TYR39      -0.1974
     15  CA        98.9490   48.3540   19.7330 C.3    39  TYR39       0.1639
     16  C        100.3430   48.2440   19.1330 C.2    39  TYR39       0.2290
     17  O        101.3470   48.4620   19.8260 O.2    39  TYR39      -0.2864
     18  CB        98.6370   49.8080   20.1230 C.3    39  TYR39       0.0560
     19  CG        98.7030   50.7340   18.9260 C.ar   39  TYR39      -0.0198
     20  CD1       97.7830   50.6120   17.8830 C.ar   39  TYR39      -0.0009
     21  CD2       99.6930   51.7030   18.8200 C.ar   39  TYR39      -0.0009
     22  CE1       97.8370   51.4280   16.7750 C.ar   39  TYR39       0.0417
     23  CE2       99.7570   52.5420   17.7080 C.ar   39  TYR39       0.0417
     24  CZ        98.8250   52.3920   16.6900 C.ar   39  TYR39       0.1957
     25  OH        98.8800   53.2050   15.5900 O.3    39  TYR39      -0.2866
     26  N        102.9880   48.9940   15.5630 N.3    41  ARG41      -0.1245
     27  CA       103.3160   49.6710   14.3060 C.3    41  ARG41       0.1563
     28  C        104.5340   48.9760   13.7100 C.2    41  ARG41       0.2260
     29  O        105.4480   48.6000   14.4430 O.2    41  ARG41      -0.2867
     30  CB       103.5930   51.1570   14.5330 C.3    41  ARG41       0.0307
     31  CG       102.3590   51.9690   14.8980 C.3    41  ARG41       0.0489
     32  CD       102.6510   53.4730   14.9370 C.3    41  ARG41       0.2205
     33  NE       102.7520   54.0510   13.5940 N.pl3  41  ARG41      -0.0865
     34  CZ       101.7090   54.3450   12.8170 C.cat  41  ARG41       0.5346
     35  NH1      100.4680   54.1150   13.2340 N.pl3  41  ARG41       0.1354
     36  NH2      101.9060   54.8590   11.6120 N.pl3  41  ARG41       0.1354
     37  N         95.5770   47.6310   16.2120 N.3    56  ALA56      -0.1245
     38  CA        95.0350   47.7780   17.5630 C.3    56  ALA56       0.1562
     39  C         93.9890   46.6820   17.7620 C.2    56  ALA56       0.2260
     40  O         92.9880   46.6310   17.0460 O.2    56  ALA56      -0.2867
     41  CB        94.4120   49.1700   17.7670 C.3    56  ALA56       0.0290
     42  N        106.5350   46.1030   32.7530 N.3   371  TRP371     -0.1241
     43  CA       106.2400   46.6710   34.0640 C.3   371  TRP371      0.1605
     44  C        105.0680   45.9120   34.6530 C.2   371  TRP371      0.2264
     45  O        103.9440   45.9890   34.1430 O.2   371  TRP371     -0.2867
     46  CB       105.9010   48.1650   33.9820 C.3   371  TRP371      0.0550
     47  CG       105.5290   48.7830   35.3190 C.ar  371  TRP371      0.0003
     48  CD1      106.2080   48.6570   36.5030 C.ar  371  TRP371      0.0946
     49  CD2      104.3990   49.6240   35.5990 C.ar  371  TRP371      0.0152
     50  NE1      105.5750   49.3620   37.4930 N.ar  371  TRP371     -0.2442
     51  CE2      104.4630   49.9680   36.9700 C.ar  371  TRP371      0.0810
     52  CE3      103.3390   50.1200   34.8250 C.ar  371  TRP371      0.0012
     53  CZ2      103.5030   50.7840   37.5900 C.ar  371  TRP371      0.0191
     54  CZ3      102.3830   50.9340   35.4400 C.ar  371  TRP371      0.0001
     55  CH2      102.4770   51.2590   36.8100 C.ar  371  TRP371      0.0015
     56  N        102.2030   46.1230   31.9760 N.3   379  VAL379     -0.1245
     57  CA       102.3620   46.9520   30.7780 C.3   379  VAL379      0.1561
     58  C        103.6890   46.6210   30.1080 C.2   379  VAL379      0.2260
     59  O        104.7270   46.5350   30.7700 O.2   379  VAL379     -0.2867
     60  CB       102.3050   48.4730   31.1010 C.3   379  VAL379      0.0252
     61  CG1      102.2520   49.2950   29.8120 C.3   379  VAL379      0.0019
     62  CG2      101.1090   48.7950   31.9750 C.3   379  VAL379      0.0019
     63  N        103.1040   47.5220   21.8540 N.3   405  MET405     -0.1230
     64  CA       102.8450   47.7340   23.2690 C.3   405  MET405      0.1702
     65  C        101.5980   46.9770   23.6930 C.2   405  MET405      0.2592
     66  O        100.7000   46.7560   22.8860 O.2   405  MET405     -0.2718
     67  CB       102.6940   49.2200   23.5640 C.3   405  MET405      0.0401
     68  CG       103.9920   49.9970   23.3570 C.3   405  MET405      0.0596
     69  SD       103.9040   51.6670   24.0160 S.3   405  MET405     -0.1393
     70  CE       103.9710   51.3450   25.7960 C.3   405  MET405      0.0692
     71  N        101.5560   46.5760   24.9560 N.am  406  ARG406     -0.1966
     72  CA       100.4240   45.8340   25.4990 C.3   406  ARG406      0.1729
     73  C        100.0640   46.3520   26.8780 C.2   406  ARG406      0.2616
     74  O        100.9460   46.6320   27.6820 O.2   406  ARG406     -0.2715
     75  CB       100.7290   44.3250   25.5740 C.3   406  ARG406      0.0348
     76  CG        99.6690   43.4900   26.3480 C.3   406  ARG406      0.0492
     77  CD        99.9560   41.9800   26.3150 C.3   406  ARG406      0.2205
     78  NE        99.9680   41.4880   24.9360 N.pl3 406  ARG406     -0.0865
     79  CZ       100.5280   40.3520   24.5340 C.cat 406  ARG406      0.5346
     80  NH1      101.1320   39.5480   25.4060 N.pl3 406  ARG406      0.1354
     81  NH2      100.4830   40.0230   23.2510 N.pl3 406  ARG406      0.1354
     82  N         98.7640   46.4980   27.1230 N.am  407  LEU407     -0.1977
     83  CA        98.2300   46.5930   28.4720 C.3   407  LEU407      0.1596
     84  C         97.5320   45.2690   28.7820 C.2   407  LEU407      0.2287
     85  O         96.6160   44.8830   28.0650 O.2   407  LEU407     -0.2864
     86  CB        97.2350   47.7540   28.5900 C.3   407  LEU407      0.0297
     87  CG        96.4540   47.9080   29.9000 C.3   407  LEU407      0.0022
     88  CD1       97.3780   48.0810   31.1000 C.3   407  LEU407      0.0001
     89  CD2       95.4880   49.0890   29.7870 C.3   407  LEU407      0.0001
@<TRIPOS>BOND
     1    36    34    1
     2    34    35    1
     3    34    33    2
     4    33    32    1
     5    28    27    1
     6    28    29    2
     7    27    30    1
     8    27    26    1
     9    30    31    1
    10    31    32    1
    11    25    24    1
    12    37    38    1
    13    24    22   ar
    14    24    23   ar
    15    22    20   ar
    16    40    39    2
    17    38    39    1
    18    38    41    1
    19    23    21   ar
    20    20    19   ar
    21    21    19   ar
    22    19    18    1
    23    16    15    1
    24    16    17    2
    25    15    18    1
    26    15    14    1
    27     9     8    2
    28    14     8   am
    29     8     7    1
    30    10     7    1
    31    10    11    1
    32    13    11   ar
    33    63    64    1
    34     7     6    1
    35    11    12   ar
    36     6     3   am
    37    66    65    2
    38    81    79    1
    39    64    67    1
    40    64    65    1
    41    68    67    1
    42    68    69    1
    43    65    71   am
    44     3     2    1
    45     3     4    2
    46    69    70    1
    47    79    78    2
    48    79    80    1
    49     2     5    1
    50     2     1    1
    51    78    77    1
    52    71    72    1
    53    72    75    1
    54    72    73    1
    55    75    76    1
    56    77    76    1
    57    73    82   am
    58    73    74    2
    59    82    83    1
    60    85    84    2
    61    83    86    1
    62    83    84    1
    63    86    87    1
    64    89    87    1
    65    61    60    1
    66    87    88    1
    67    58    59    2
    68    58    57    1
    69    57    60    1
    70    57    56    1
    71    60    62    1
    72    42    43    1
    73    46    43    1
    74    46    47    1
    75    43    44    1
    76    45    44    2
    77    52    54   ar
    78    52    49   ar
    79    47    49   ar
    80    47    48   ar
    81    54    55   ar
    82    49    51   ar
    83    48    50   ar
    84    55    53   ar
    85    51    50   ar
    86    51    53   ar
