@<TRIPOS>MOLECULE
tmp/2o51A03.pdb
 79 79 0 0 0
SMALL
GASTEIGER

@<TRIPOS>ATOM
      1  N         20.2870   18.1220    9.3880 N.3    88  PRO88      -0.2102
      2  CA        19.1830   17.5660   10.1790 C.3    88  PRO88       0.1504
      3  C         18.9100   16.0900    9.8910 C.2    88  PRO88       0.2576
      4  O         19.2500   15.5820    8.8180 O.2    88  PRO88      -0.2718
      5  CB        18.0080   18.4500    9.7770 C.3    88  PRO88       0.0282
      6  CG        18.6610   19.7860    9.6290 C.3    88  PRO88       0.0208
      7  CD        19.9370   19.4590    8.8680 C.3    88  PRO88       0.0893
      8  N         18.2970   15.4050   10.8530 N.am   89  THR89      -0.1939
      9  CA        17.9590   13.9930   10.6830 C.3    89  THR89       0.2028
     10  C         16.5100   13.9100   10.2030 C.2    89  THR89       0.2642
     11  O         15.6270   14.5930   10.7380 O.2    89  THR89      -0.2714
     12  CB        18.1080   13.1960   12.0060 C.3    89  THR89       0.1808
     13  OG1       17.2820   13.7790   13.0190 O.3    89  THR89      -0.2208
     14  CG2       19.5520   13.1940   12.4700 C.3    89  THR89       0.0379
     15  N         16.2650   13.0690    9.2020 N.am   90  GLU90      -0.1963
     16  CA        14.9270   12.9330    8.6330 C.3    90  GLU90       0.1733
     17  C         14.0380   11.8570    9.2510 C.2    90  GLU90       0.2616
     18  O         12.8330   11.8290    8.9970 O.2    90  GLU90      -0.2715
     19  CB        15.0210   12.6730    7.1300 C.3    90  GLU90       0.0429
     20  CG        15.8980   13.6530    6.3600 C.3    90  GLU90       0.1163
     21  CD        15.5390   13.7020    4.8870 C.2    90  GLU90       0.3649
     22  OE1       14.5310   14.3600    4.5480 O.co2  90  GLU90      -0.2457
     23  OE2       16.2520   13.0740    4.0740 O.co2  90  GLU90      -0.2457
     24  N         14.6190   10.9790   10.0620 N.am   91  GLY91      -0.1955
     25  CA        13.8310    9.9160   10.6600 C.3    91  GLY91       0.1869
     26  C         13.7060    8.8090    9.6320 C.2    91  GLY91       0.2309
     27  O         14.2740    8.9130    8.5430 O.2    91  GLY91      -0.2863
     28  N          6.5320    7.6600   11.0360 N.3   250  VAL250     -0.1231
     29  CA         7.9070    8.0460   10.7400 C.3   250  VAL250      0.1692
     30  C          8.6300    8.0100   12.0900 C.2   250  VAL250      0.2592
     31  O          8.2920    8.7450   13.0150 O.2   250  VAL250     -0.2718
     32  CB         8.0030    9.4590   10.0710 C.3   250  VAL250      0.0266
     33  CG1        6.8910   10.3470   10.5550 C.3   250  VAL250      0.0020
     34  CG2        9.3580   10.0990   10.3700 C.3   250  VAL250      0.0020
     35  N          9.6140    7.1240   12.1940 N.am  251  ALA251     -0.1966
     36  CA        10.3630    6.9360   13.4260 C.3   251  ALA251      0.1713
     37  C         11.5740    7.8310   13.5740 C.2   251  ALA251      0.2458
     38  O         12.2490    8.1420   12.6040 O.2   251  ALA251     -0.2730
     39  CB        10.7910    5.4920   13.5310 C.3   251  ALA251      0.0333
     40  N         11.8550    8.2720   14.8040 N.am  252  PRO252     -0.2727
     41  CA        13.0210    9.1340   15.0160 C.3   252  PRO252      0.1402
     42  C         14.3020    8.2980   14.9400 C.2   252  PRO252      0.2269
     43  O         14.3770    7.1930   15.4780 O.2   252  PRO252     -0.2865
     44  CB        12.7580    9.7480   16.3970 C.3   252  PRO252      0.0296
     45  CG        11.9160    8.7100   17.0840 C.3   252  PRO252      0.0237
     46  CD        10.9920    8.2280   15.9980 C.3   252  PRO252      0.0939
     47  N         12.0560   15.7340   23.6040 N.3   318  GLU318     -0.1231
     48  CA        12.0770   16.5890   22.4280 C.3   318  GLU318      0.1699
     49  C         12.6500   15.8510   21.2390 C.2   318  GLU318      0.2592
     50  O         12.1090   15.9240   20.1300 O.2   318  GLU318     -0.2718
     51  CB        12.9080   17.8280   22.6990 C.3   318  GLU318      0.0402
     52  CG        12.3100   18.6890   23.7630 C.3   318  GLU318      0.1161
     53  CD        13.1780   19.8610   24.0970 C.2   318  GLU318      0.3649
     54  OE1       14.3470   19.6370   24.4800 O.co2 318  GLU318     -0.2457
     55  OE2       12.6860   21.0020   23.9760 O.co2 318  GLU318     -0.2457
     56  N         13.7500   15.1420   21.4630 N.am  319  TYR319     -0.1962
     57  CA        14.3580   14.3980   20.3760 C.3   319  TYR319      0.1771
     58  C         13.3510   13.4140   19.8100 C.2   319  TYR319      0.2619
     59  O         13.2190   13.2930   18.5950 O.2   319  TYR319     -0.2715
     60  CB        15.5830   13.6210   20.8400 C.3   319  TYR319      0.0574
     61  CG        16.1660   12.7950   19.7230 C.ar  319  TYR319     -0.0198
     62  CD1       16.9790   13.3790   18.7620 C.ar  319  TYR319     -0.0009
     63  CD2       15.8180   11.4560   19.5670 C.ar  319  TYR319     -0.0009
     64  CE1       17.4240   12.6580   17.6670 C.ar  319  TYR319      0.0417
     65  CE2       16.2540   10.7270   18.4780 C.ar  319  TYR319      0.0417
     66  CZ        17.0550   11.3350   17.5270 C.ar  319  TYR319      0.1957
     67  OH        17.4670   10.6310   16.4220 O.3   319  TYR319     -0.2866
     68  N         12.6420   12.7120   20.6880 N.am  320  LEU320     -0.1963
     69  CA        11.6650   11.7350   20.2350 C.3   320  LEU320      0.1728
     70  C         10.3960   12.3950   19.6920 C.2   320  LEU320      0.2616
     71  O          9.6880   11.8150   18.8510 O.2   320  LEU320     -0.2715
     72  CB        11.3200   10.7740   21.3730 C.3   320  LEU320      0.0311
     73  CG        12.4610    9.8890   21.8900 C.3   320  LEU320      0.0022
     74  CD1       11.9330    9.0570   23.0450 C.3   320  LEU320      0.0001
     75  CD2       13.0090    8.9800   20.7910 C.3   320  LEU320      0.0001
     76  N         10.1250   13.6100   20.1640 N.am  321  GLY321     -0.1955
     77  CA         8.9480   14.3320   19.7190 C.3   321  GLY321      0.1869
     78  C          7.7170   13.9360   20.5080 C.2   321  GLY321      0.2309
     79  O          7.5160   12.7590   20.7940 O.2   321  GLY321     -0.2863
@<TRIPOS>BOND
     1    23    21   ar
     2    22    21   ar
     3    21    20    1
     4    20    19    1
     5    19    16    1
     6    27    26    2
     7    16    15    1
     8    16    17    1
     9     4     3    2
    10     7     1    1
    11     7     6    1
    12    18    17    2
    13    15    10   am
    14    17    24   am
    15     1     2    1
    16     6     5    1
    17    26    25    1
    18     5     2    1
    19     3     2    1
    20     3     8   am
    21    24    25    1
    22    32    34    1
    23    32    33    1
    24    32    29    1
    25    10     9    1
    26    10    11    2
    27     9     8    1
    28     9    12    1
    29    29    28    1
    30    29    30    1
    31    12    14    1
    32    12    13    1
    33    30    35   am
    34    30    31    2
    35    35    36    1
    36    38    37    2
    37    36    39    1
    38    36    37    1
    39    37    40   am
    40    40    41    1
    41    40    46    1
    42    42    41    1
    43    42    43    2
    44    41    44    1
    45    46    45    1
    46    44    45    1
    47    67    66    1
    48    66    64   ar
    49    66    65   ar
    50    64    62   ar
    51    65    63   ar
    52    59    58    2
    53    62    61   ar
    54    71    70    2
    55    63    61   ar
    56    70    76   am
    57    70    69    1
    58    77    76    1
    59    77    78    1
    60    61    60    1
    61    58    57    1
    62    58    68   am
    63    50    49    2
    64    69    68    1
    65    69    72    1
    66    57    60    1
    67    57    56    1
    68    78    79    2
    69    75    73    1
    70    49    56   am
    71    49    48    1
    72    72    73    1
    73    73    74    1
    74    48    51    1
    75    48    47    1
    76    51    52    1
    77    52    53    1
    78    55    53   ar
    79    53    54   ar
