@<TRIPOS>MOLECULE
tmp/2o52B00.pdb
 115 109 0 0 0
SMALL
GASTEIGER

@<TRIPOS>ATOM
      1  N         35.5200  -14.6740    9.0000 N.3    14  GLY14      -0.1210
      2  CA        36.1870  -13.3910    8.9830 C.3    14  GLY14       0.1956
      3  C         36.7650  -12.9070   10.3200 C.2    14  GLY14       0.2613
      4  O         37.2540  -11.7970   10.4030 O.2    14  GLY14      -0.2717
      5  N         36.7250  -13.7340   11.3620 N.am   15  THR15      -0.1938
      6  CA        37.2360  -13.3160   12.6980 C.3    15  THR15       0.2028
      7  C         38.7490  -13.5000   12.8830 C.2    15  THR15       0.2643
      8  O         39.3380  -12.9620   13.8260 O.2    15  THR15      -0.2714
      9  CB        36.4680  -14.0380   13.8090 C.3    15  THR15       0.1808
     10  OG1       36.4880  -15.4360   13.5670 O.3    15  THR15      -0.2208
     11  CG2       35.0080  -13.5580   13.8170 C.3    15  THR15       0.0379
     12  N         39.3620  -14.2720   11.9800 N.am   16  GLY16      -0.1939
     13  CA        40.7950  -14.5410   12.0110 C.3    16  GLY16       0.2014
     14  C         41.1590  -15.9260   12.4870 C.2    16  GLY16       0.2639
     15  O         42.2680  -16.1620   12.8710 O.2    16  GLY16      -0.2714
     16  N         40.2290  -16.8520   12.4140 N.am   17  LYS17      -0.1963
     17  CA        40.4600  -18.1980   12.9010 C.3    17  LYS17       0.1728
     18  C         41.5950  -18.9160   12.1490 C.2    17  LYS17       0.2617
     19  O         42.4020  -19.6520   12.7430 O.2    17  LYS17      -0.2715
     20  CB        39.1920  -19.0030   12.7610 C.3    17  LYS17       0.0311
     21  CG        37.9980  -18.5150   13.5550 C.3    17  LYS17       0.0038
     22  CD        36.8500  -19.5250   13.4420 C.3    17  LYS17       0.0206
     23  CE        36.2850  -19.6980   12.0010 C.3    17  LYS17       0.1093
     24  NZ        35.8830  -18.3770   11.4150 N.3    17  LYS17      -0.1314
     25  N         41.6420  -18.7360   10.8400 N.am   18  SER18      -0.1936
     26  CA        42.6610  -19.3910   10.0140 C.3    18  SER18       0.2055
     27  C         43.9950  -18.7070   10.1800 C.2    18  SER18       0.2643
     28  O         45.0310  -19.3650   10.2360 O.2    18  SER18      -0.2714
     29  CB        42.2260  -19.4240    8.5440 C.3    18  SER18       0.2130
     30  OG        41.1330  -20.3250    8.3570 O.3    18  SER18      -0.2179
     31  N         43.9860  -17.3890   10.2850 N.am   19  CYS19      -0.1967
     32  CA        45.2290  -16.6630   10.6360 C.3    19  CYS19       0.1712
     33  C         45.8290  -17.0420   11.9970 C.2    19  CYS19       0.2296
     34  O         47.0470  -17.0850   12.1310 O.2    19  CYS19      -0.2864
     35  CB        45.0090  -15.1580   10.5750 C.3    19  CYS19       0.0983
     36  SG        44.7580  -14.5620    8.8620 S.3    19  CYS19      -0.0798
     37  N         38.3150  -24.8990    9.5910 N.3    48  THR48      -0.1218
     38  CA        36.9740  -25.1420    9.0220 C.3    48  THR48       0.1862
     39  C         36.9420  -25.1130    7.4830 C.2    48  THR48       0.2287
     40  O         35.9010  -25.3350    6.8900 O.2    48  THR48      -0.2866
     41  CB        35.9600  -24.0840    9.4910 C.3    48  THR48       0.1770
     42  OG1       36.3940  -22.7920    9.0500 O.3    48  THR48      -0.2211
     43  CG2       35.7950  -24.0970   10.9990 C.3    48  THR48       0.0375
     44  N         31.9970  -22.2260    6.9820 N.3    52  GLU52      -0.1231
     45  CA        31.0300  -21.4280    7.7240 C.3    52  GLU52       0.1699
     46  C         30.5780  -20.1830    7.0120 C.2    52  GLU52       0.2592
     47  O         29.5030  -19.6520    7.3360 O.2    52  GLU52      -0.2718
     48  CB        31.5570  -21.0850    9.1280 C.3    52  GLU52       0.0402
     49  CG        32.5410  -19.9600    9.2450 C.3    52  GLU52       0.1161
     50  CD        33.9830  -20.3640    8.9220 C.2    52  GLU52       0.3649
     51  OE1       34.2260  -21.5560    8.5750 O.co2  52  GLU52      -0.2457
     52  OE2       34.8630  -19.4690    9.0130 O.co2  52  GLU52      -0.2457
     53  N         31.3380  -19.7080    6.0210 N.am   53  ARG53      -0.1980
     54  CA        30.8470  -18.5670    5.2390 C.3    53  ARG53       0.1597
     55  C         29.7350  -18.9280    4.2640 C.2    53  ARG53       0.2287
     56  O         29.0500  -18.0470    3.7830 O.2    53  ARG53      -0.2864
     57  CB        31.9370  -17.7430    4.5250 C.3    53  ARG53       0.0334
     58  CG        33.2220  -18.3790    4.2010 C.3    53  ARG53       0.0492
     59  CD        34.2180  -17.2980    3.6600 C.3    53  ARG53       0.2205
     60  NE        35.6000  -17.7820    3.6500 N.pl3  53  ARG53      -0.0865
     61  CZ        36.6070  -17.3480    4.4330 C.cat  53  ARG53       0.5346
     62  NH1       36.4490  -16.3580    5.3460 N.pl3  53  ARG53       0.1354
     63  NH2       37.8170  -17.9060    4.2810 N.pl3  53  ARG53       0.1354
     64  N         39.9100  -11.6790   19.0250 N.3   105  ASN105     -0.1225
     65  CA        40.9400  -11.4680   18.0140 C.3   105  ASN105      0.1785
     66  C         40.8590  -10.0550   17.3960 C.2   105  ASN105      0.2597
     67  O         39.8820   -9.3340   17.5880 O.2   105  ASN105     -0.2718
     68  CB        40.9050  -12.5690   16.9420 C.3   105  ASN105      0.1169
     69  CG        42.1590  -12.5860   16.0850 C.2   105  ASN105      0.2627
     70  OD1       43.2800  -12.5010   16.6170 O.2   105  ASN105     -0.2716
     71  ND2       41.9860  -12.6590   14.7480 N.am  105  ASN105     -0.0877
     72  N         41.9200   -9.7100   16.6730 N.am  106  LYS106     -0.1980
     73  CA        42.1620   -8.4060   16.0330 C.3   106  LYS106      0.1596
     74  C         42.4300   -7.2730   17.0060 C.2   106  LYS106      0.2287
     75  O         42.0630   -6.1520   16.7600 O.2   106  LYS106     -0.2864
     76  CB        41.0610   -8.0280   15.0270 C.3   106  LYS106      0.0298
     77  CG        40.6720   -9.1440   14.0950 C.3   106  LYS106      0.0038
     78  CD        40.1380   -8.6360   12.7910 C.3   106  LYS106      0.0206
     79  CE        39.6410   -9.7900   11.9120 C.3   106  LYS106      0.1093
     80  NZ        38.8460   -9.2610   10.7720 N.3   106  LYS106     -0.1314
     81  N         45.0030   -5.5680   17.6290 N.3   108  ASP108     -0.1225
     82  CA        45.7480   -4.4630   16.9540 C.3   108  ASP108      0.1805
     83  C         44.8360   -3.3920   16.3850 C.2   108  ASP108      0.2597
     84  O         45.3120   -2.3190   16.0310 O.2   108  ASP108     -0.2718
     85  CB        46.6340   -4.9940   15.8320 C.3   108  ASP108      0.1424
     86  CG        45.8740   -5.9000   14.8550 C.2   108  ASP108      0.3668
     87  OD1       45.5160   -7.0430   15.2370 O.co2 108  ASP108     -0.2456
     88  OD2       45.6360   -5.4620   13.7190 O.co2 108  ASP108     -0.2456
     89  N         43.5310   -3.7010   16.2790 N.am  109  LEU109     -0.1979
     90  CA        42.5390   -2.7990   15.7080 C.3   109  LEU109      0.1596
     91  C         41.7000   -2.1660   16.8130 C.2   109  LEU109      0.2287
     92  O         40.5200   -1.8670   16.6210 O.2   109  LEU109     -0.2864
     93  CB        41.6380   -3.5440   14.6910 C.3   109  LEU109      0.0297
     94  CG        42.2480   -4.2050   13.4500 C.3   109  LEU109      0.0022
     95  CD1       41.1590   -4.6710   12.5180 C.3   109  LEU109      0.0001
     96  CD2       43.1960   -3.2410   12.7230 C.3   109  LEU109      0.0001
     97  N         45.9660  -11.0280   18.6190 N.3   135  SER135     -0.1202
     98  CA        46.1410  -10.5220   17.2680 C.3   135  SER135      0.2020
     99  C         46.9190  -11.5580   16.5250 C.2   135  SER135      0.2619
    100  O         48.0990  -11.7630   16.8120 O.2   135  SER135     -0.2717
    101  CB        46.8820   -9.1850   17.2440 C.3   135  SER135      0.2103
    102  OG        47.0330   -8.7420   15.9050 O.3   135  SER135     -0.2182
    103  N         46.2410  -12.2500   15.6020 N.am  136  ALA136     -0.1965
    104  CA        46.8940  -13.1500   14.6540 C.3   136  ALA136      0.1728
    105  C         47.8290  -12.3830   13.7060 C.2   136  ALA136      0.2616
    106  O         48.7840  -12.9450   13.1950 O.2   136  ALA136     -0.2715
    107  CB        45.8520  -13.9220   13.8510 C.3   136  ALA136      0.0334
    108  N         47.5570  -11.0980   13.4870 N.am  137  LEU137     -0.1977
    109  CA        48.4140  -10.2700   12.6380 C.3   137  LEU137      0.1596
    110  C         49.8200  -10.0380   13.2600 C.2   137  LEU137      0.2287
    111  O         50.8170  -10.3250   12.6190 O.2   137  LEU137     -0.2864
    112  CB        47.7200   -8.9430   12.2890 C.3   137  LEU137      0.0297
    113  CG        48.4880   -7.9780   11.3840 C.3   137  LEU137      0.0022
    114  CD1       48.7970   -8.6310   10.0400 C.3   137  LEU137      0.0001
    115  CD2       47.7210   -6.6900   11.1680 C.3   137  LEU137      0.0001
@<TRIPOS>BOND
     1    60    59    1
     2    60    61    2
     3    59    58    1
     4    56    55    2
     5    58    57    1
     6    55    54    1
     7    63    61    1
     8    61    62    1
     9    57    54    1
    10    54    53    1
    11    53    46   am
    12    40    39    2
    13    44    45    1
    14    46    47    2
    15    46    45    1
    16    39    38    1
    17    45    48    1
    18    30    29    1
    19    29    26    1
    20    51    50   ar
    21    36    35    1
    22    50    52   ar
    23    50    49    1
    24     2     1    1
    25     2     3    1
    26    38    41    1
    27    38    37    1
    28    42    41    1
    29    48    49    1
    30    41    43    1
    31    26    27    1
    32    26    25    1
    33   114   113    1
    34    27    28    2
    35    27    31   am
    36    31    32    1
    37     3     4    2
    38     3     5   am
    39    35    32    1
    40    32    33    1
    41    80    79    1
    42    25    18   am
    43   115   113    1
    44     5     6    1
    45   113   112    1
    46    24    23    1
    47    79    78    1
    48    12    13    1
    49    12     7   am
    50    33    34    2
    51    23    22    1
    52    13    14    1
    53    18    19    2
    54    18    17    1
    55   112   109    1
    56    16    14   am
    57    16    17    1
    58    14    15    2
    59    95    94    1
    60   111   110    2
    61   109   110    1
    62   109   108    1
    63     6     7    1
    64     6     9    1
    65    96    94    1
    66    20    17    1
    67    20    21    1
    68    78    77    1
    69     7     8    2
    70   106   105    2
    71    22    21    1
    72    94    93    1
    73   108   105   am
    74    10     9    1
    75   105   104    1
    76    88    86   ar
    77     9    11    1
    78   107   104    1
    79    77    76    1
    80   104   103    1
    81    93    90    1
    82    71    69   am
    83    86    87   ar
    84    86    85    1
    85    76    73    1
    86   103    99   am
    87    90    89    1
    88    90    91    1
    89    85    82    1
    90   102   101    1
    91    84    83    2
    92    73    72    1
    93    73    74    1
    94    69    70    2
    95    69    68    1
    96    89    83   am
    97    83    82    1
    98    99   100    2
    99    99    98    1
   100    92    91    2
   101    72    66   am
   102    75    74    2
   103    68    65    1
   104    82    81    1
   105   101    98    1
   106    98    97    1
   107    66    67    2
   108    66    65    1
   109    65    64    1
