@<TRIPOS>MOLECULE
tmp/2o5dA00.pdb
 160 152 0 0 0
SMALL
GASTEIGER

@<TRIPOS>ATOM
      1  N         -2.7330   41.5140   73.9160 N.3   371  ALA371     -0.1245
      2  CA        -2.9200   41.5370   75.3640 C.3   371  ALA371      0.1562
      3  C         -4.2680   40.9480   75.7720 C.2   371  ALA371      0.2260
      4  O         -4.3750   40.2870   76.8060 O.2   371  ALA371     -0.2867
      5  CB        -2.7910   42.9580   75.8870 C.3   371  ALA371      0.0290
      6  N          8.4430   37.9210   66.2190 N.3   414  LEU414     -0.1245
      7  CA         9.2230   37.4510   67.3500 C.3   414  LEU414      0.1561
      8  C         10.7050   37.7870   67.1510 C.2   414  LEU414      0.2260
      9  O         11.3620   38.3120   68.0530 O.2   414  LEU414     -0.2867
     10  CB         9.0410   35.9350   67.5030 C.3   414  LEU414      0.0270
     11  CG         9.9170   35.1960   68.5150 C.3   414  LEU414      0.0019
     12  CD1        9.5850   35.6800   69.9310 C.3   414  LEU414      0.0001
     13  CD2        9.6800   33.6960   68.3920 C.3   414  LEU414      0.0001
     14  N         11.5730   41.7280   67.2700 N.3   417  ARG417     -0.1231
     15  CA        11.4680   42.2310   68.6350 C.3   417  ARG417      0.1694
     16  C         12.5830   41.7290   69.5540 C.2   417  ARG417      0.2591
     17  O         13.3320   42.5150   70.1270 O.2   417  ARG417     -0.2718
     18  CB        10.1020   41.8530   69.2240 C.3   417  ARG417      0.0321
     19  CG         8.9350   42.5260   68.5110 C.3   417  ARG417      0.0489
     20  CD         7.5940   42.0210   69.0100 C.3   417  ARG417      0.2205
     21  NE         7.2640   42.5110   70.3430 N.pl3 417  ARG417     -0.0865
     22  CZ         6.3660   41.9370   71.1330 C.cat 417  ARG417      0.5346
     23  NH1        5.7230   40.8550   70.7180 N.pl3 417  ARG417      0.1354
     24  NH2        6.1030   42.4440   72.3300 N.pl3 417  ARG417      0.1354
     25  N         12.6920   40.4120   69.6690 N.am  418  MET418     -0.1979
     26  CA        13.6810   39.7660   70.5250 C.3   418  MET418      0.1605
     27  C         15.1430   40.0170   70.1510 C.2   418  MET418      0.2287
     28  O         15.9790   40.2500   71.0220 O.2   418  MET418     -0.2864
     29  CB        13.4200   38.2550   70.5300 C.3   418  MET418      0.0413
     30  CG        14.4800   37.4190   71.2410 C.3   418  MET418      0.0598
     31  SD        14.1530   35.6250   71.1470 S.3   418  MET418     -0.1393
     32  CE        15.0550   35.1770   69.6640 C.3   418  MET418      0.0692
     33  N          2.6470   43.9720   72.0430 N.3   468  SER468     -0.1202
     34  CA         2.1410   43.0090   73.0140 C.3   468  SER468      0.2020
     35  C          1.7810   41.6440   72.4630 C.2   468  SER468      0.2619
     36  O          1.0640   40.8900   73.1160 O.2   468  SER468     -0.2717
     37  CB         0.9170   43.5840   73.7290 C.3   468  SER468      0.2103
     38  OG        -0.1710   43.7300   72.8300 O.3   468  SER468     -0.2182
     39  N          2.2690   41.3090   71.2760 N.am  469  LEU469     -0.1965
     40  CA         1.9430   40.0090   70.7140 C.3   469  LEU469      0.1728
     41  C          2.6510   38.9010   71.4710 C.2   469  LEU469      0.2616
     42  O          3.7830   39.0690   71.9250 O.2   469  LEU469     -0.2715
     43  CB         2.3220   39.9380   69.2360 C.3   469  LEU469      0.0311
     44  CG         1.5450   40.8580   68.2920 C.3   469  LEU469      0.0022
     45  CD1        1.7840   40.4050   66.8650 C.3   469  LEU469      0.0001
     46  CD2        0.0500   40.8170   68.6200 C.3   469  LEU469      0.0001
     47  N          1.9730   37.7670   71.6040 N.am  470  HIS470     -0.1959
     48  CA         2.5300   36.6200   72.3010 C.3   470  HIS470      0.1787
     49  C          1.8740   35.3320   71.7930 C.2   470  HIS470      0.2621
     50  O          0.9140   35.3700   71.0210 O.2   470  HIS470     -0.2715
     51  CB         2.3360   36.7830   73.8190 C.3   470  HIS470      0.0785
     52  CG         0.9160   36.6400   74.2700 C.ar  470  HIS470      0.0821
     53  ND1        0.3030   35.4140   74.4180 N.ar  470  HIS470     -0.2267
     54  CD2       -0.0230   37.5680   74.5730 C.ar  470  HIS470      0.1154
     55  CE1       -0.9520   35.5930   74.7900 C.ar  470  HIS470      0.1986
     56  NE2       -1.1750   36.8910   74.8920 N.ar  470  HIS470     -0.2212
     57  N          2.4070   34.1920   72.2140 N.am  471  SER471     -0.1936
     58  CA         1.8800   32.9010   71.7850 C.3   471  SER471      0.2055
     59  C          1.8740   32.8020   70.2620 C.2   471  SER471      0.2643
     60  O          0.8220   32.6510   69.6400 O.2   471  SER471     -0.2714
     61  CB         0.4600   32.6940   72.3180 C.3   471  SER471      0.2130
     62  OG         0.4350   32.7760   73.7320 O.3   471  SER471     -0.2179
     63  N          3.0560   32.8980   69.6650 N.am  472  TYR472     -0.1973
     64  CA         3.1730   32.8010   68.2220 C.3   472  TYR472      0.1639
     65  C          2.8760   31.3630   67.8190 C.2   472  TYR472      0.2290
     66  O          2.7750   30.4900   68.6740 O.2   472  TYR472     -0.2864
     67  CB         4.5800   33.2030   67.7760 C.3   472  TYR472      0.0560
     68  CG         4.8820   34.6700   67.9900 C.ar  472  TYR472     -0.0198
     69  CD1        5.3320   35.1400   69.2130 C.ar  472  TYR472     -0.0009
     70  CD2        4.7010   35.5870   66.9630 C.ar  472  TYR472     -0.0009
     71  CE1        5.5960   36.4870   69.4060 C.ar  472  TYR472      0.0417
     72  CE2        4.9590   36.9280   67.1450 C.ar  472  TYR472      0.0417
     73  CZ         5.4090   37.3760   68.3680 C.ar  472  TYR472      0.1957
     74  OH         5.6830   38.7150   68.5380 O.3   472  TYR472     -0.2866
     75  N          7.4940   29.8020   65.4300 N.3   477  ILE477     -0.1245
     76  CA         8.4290   29.5480   66.5190 C.3   477  ILE477      0.1561
     77  C          9.5730   28.6460   66.0930 C.2   477  ILE477      0.2260
     78  O         10.7400   28.9590   66.3170 O.2   477  ILE477     -0.2867
     79  CB         7.7090   28.8910   67.7060 C.3   477  ILE477      0.0252
     80  CG1        6.8700   29.9440   68.4300 C.3   477  ILE477      0.0019
     81  CG2        8.7160   28.2030   68.6220 C.3   477  ILE477      0.0019
     82  CD1        5.9800   29.3830   69.5100 C.3   477  ILE477      0.0001
     83  N         11.9680   30.1550   63.4620 N.3   480  VAL480     -0.1231
     84  CA        12.8970   31.0950   64.0820 C.3   480  VAL480      0.1692
     85  C         13.9540   30.3120   64.8580 C.2   480  VAL480      0.2591
     86  O         15.1500   30.6040   64.7860 O.2   480  VAL480     -0.2718
     87  CB        12.1580   32.0650   65.0400 C.3   480  VAL480      0.0266
     88  CG1       13.1630   32.9140   65.8150 C.3   480  VAL480      0.0020
     89  CG2       11.2230   32.9620   64.2440 C.3   480  VAL480      0.0020
     90  N         13.5110   29.3020   65.5920 N.am  481  ALA481     -0.1980
     91  CA        14.4280   28.4740   66.3650 C.3   481  ALA481      0.1597
     92  C         15.4840   27.8630   65.4510 C.2   481  ALA481      0.2287
     93  O         16.6710   27.9090   65.7580 O.2   481  ALA481     -0.2864
     94  CB        13.6570   27.3720   67.0850 C.3   481  ALA481      0.0319
     95  N         18.0670   30.3720   64.2100 N.3   484  LEU484     -0.1245
     96  CA        19.0390   30.7420   65.2350 C.3   484  LEU484      0.1561
     97  C         20.1060   29.6580   65.4240 C.2   484  LEU484      0.2260
     98  O         21.2810   29.9670   65.6370 O.2   484  LEU484     -0.2867
     99  CB        18.3330   31.0300   66.5640 C.3   484  LEU484      0.0270
    100  CG        17.1900   32.0470   66.4530 C.3   484  LEU484      0.0019
    101  CD1       16.7350   32.4770   67.8400 C.3   484  LEU484      0.0001
    102  CD2       17.6570   33.2450   65.6470 C.3   484  LEU484      0.0001
    103  N         16.4690   32.8030   73.3870 N.3   492  LEU492     -0.1245
    104  CA        15.5640   33.7640   74.0140 C.3   492  LEU492      0.1561
    105  C         16.0320   34.2550   75.3730 C.2   492  LEU492      0.2260
    106  O         16.1000   35.4600   75.6160 O.2   492  LEU492     -0.2867
    107  CB        14.1700   33.1510   74.1780 C.3   492  LEU492      0.0270
    108  CG        13.2260   33.8960   75.1380 C.3   492  LEU492      0.0019
    109  CD1       12.9410   35.2960   74.6040 C.3   492  LEU492      0.0001
    110  CD2       11.9250   33.1110   75.3120 C.3   492  LEU492      0.0001
    111  N         16.2800   38.0780   76.2070 N.3   496  ARG496     -0.1245
    112  CA        15.3920   38.6570   77.2140 C.3   496  ARG496      0.1563
    113  C         16.2330   39.3800   78.2610 C.2   496  ARG496      0.2260
    114  O         15.9050   40.4950   78.6770 O.2   496  ARG496     -0.2867
    115  CB        14.5460   37.5640   77.8730 C.3   496  ARG496      0.0307
    116  CG        13.5790   38.0700   78.9440 C.3   496  ARG496      0.0489
    117  CD        12.8950   36.9010   79.6530 C.3   496  ARG496      0.2205
    118  NE        12.0070   36.1590   78.7590 N.pl3 496  ARG496     -0.0865
    119  CZ        10.8180   36.5980   78.3570 C.cat 496  ARG496      0.5346
    120  NH1       10.3710   37.7760   78.7710 N.pl3 496  ARG496      0.1354
    121  NH2       10.0770   35.8640   77.5390 N.pl3 496  ARG496      0.1354
    122  N          8.0030   43.4620   76.5780 N.3   523  TRP523     -0.1241
    123  CA         7.9760   41.9960   76.6290 C.3   523  TRP523      0.1605
    124  C          9.1210   41.4140   77.4420 C.2   523  TRP523      0.2264
    125  O          9.1160   40.2260   77.7700 O.2   523  TRP523     -0.2867
    126  CB         8.0540   41.3970   75.2180 C.3   523  TRP523      0.0550
    127  CG         9.2840   41.8220   74.4610 C.ar  523  TRP523      0.0003
    128  CD1        9.3870   42.8760   73.5940 C.ar  523  TRP523      0.0946
    129  CD2       10.5960   41.2450   74.5440 C.ar  523  TRP523      0.0152
    130  NE1       10.6750   42.9890   73.1360 N.ar  523  TRP523     -0.2442
    131  CE2       11.4380   42.0020   73.7030 C.ar  523  TRP523      0.0810
    132  CE3       11.1400   40.1650   75.2480 C.ar  523  TRP523      0.0012
    133  CZ2       12.7930   41.7140   73.5470 C.ar  523  TRP523      0.0191
    134  CZ3       12.4900   39.8810   75.0890 C.ar  523  TRP523      0.0001
    135  CH2       13.2980   40.6520   74.2460 C.ar  523  TRP523      0.0015
    136  N         10.0930   42.4720   80.5430 N.3   525  VAL525     -0.1231
    137  CA         9.7880   42.4110   81.9720 C.3   525  VAL525      0.1692
    138  C          8.6890   41.4090   82.3120 C.2   525  VAL525      0.2591
    139  O          7.8980   41.0250   81.4510 O.2   525  VAL525     -0.2718
    140  CB         9.3830   43.7960   82.5140 C.3   525  VAL525      0.0266
    141  CG1       10.6010   44.6950   82.5890 C.3   525  VAL525      0.0020
    142  CG2        8.3240   44.4180   81.6140 C.3   525  VAL525      0.0020
    143  N          8.6450   40.9900   83.5760 N.am  526  LYS526     -0.1980
    144  CA         7.6470   40.0250   84.0330 C.3   526  LYS526      0.1596
    145  C          6.2930   40.6910   84.2400 C.2   526  LYS526      0.2287
    146  O          5.2490   40.0790   84.0100 O.2   526  LYS526     -0.2864
    147  CB         8.0890   39.3780   85.3470 C.3   526  LYS526      0.0298
    148  CG         8.1290   40.3450   86.5180 C.3   526  LYS526      0.0038
    149  CD         8.4410   39.6300   87.8210 C.3   526  LYS526      0.0206
    150  CE         9.8120   38.9690   87.7830 C.3   526  LYS526      0.1093
    151  NZ        10.1190   38.2690   89.0620 N.3   526  LYS526     -0.1314
    152  N          4.1020   43.5110   82.8580 N.3   528  LYS528     -0.1245
    153  CA         3.8450   44.4640   81.7780 C.3   528  LYS528      0.1561
    154  C          3.2420   45.7750   82.2680 C.2   528  LYS528      0.2260
    155  O          2.7520   45.8700   83.3950 O.2   528  LYS528     -0.2867
    156  CB         2.8830   43.8730   80.7370 C.3   528  LYS528      0.0271
    157  CG         3.4390   42.7710   79.8440 C.3   528  LYS528      0.0035
    158  CD         3.5000   41.4320   80.5480 C.3   528  LYS528      0.0206
    159  CE         4.9200   41.1050   80.9500 C.3   528  LYS528      0.1093
    160  NZ         5.8140   41.1460   79.7630 N.3   528  LYS528     -0.1314
@<TRIPOS>BOND
     1    83    84    1
     2    84    85    1
     3    84    87    1
     4    95    96    1
     5    89    87    1
     6    86    85    2
     7    85    90   am
     8    87    88    1
     9    96    97    1
    10    96    99    1
    11    97    98    2
    12    75    76    1
    13    92    93    2
    14    92    91    1
    15    90    91    1
    16   102   100    1
    17    77    78    2
    18    77    76    1
    19     6     7    1
    20    91    94    1
    21   100    99    1
    22   100   101    1
    23    76    79    1
    24    45    44    1
    25    70    72   ar
    26    70    68   ar
    27    72    73   ar
    28     8     7    1
    29     8     9    2
    30    14    15    1
    31     7    10    1
    32    10    11    1
    33    79    80    1
    34    79    81    1
    35    67    68    1
    36    67    64    1
    37    65    64    1
    38    65    66    2
    39    68    69   ar
    40    64    63    1
    41    44    46    1
    42    44    43    1
    43    73    74    1
    44    73    71   ar
    45    13    11    1
    46    80    82    1
    47    19    20    1
    48    19    18    1
    49    11    12    1
    50    15    18    1
    51    15    16    1
    52    20    21    1
    53    69    71   ar
    54    43    40    1
    55    16    25   am
    56    16    17    2
    57    60    59    2
    58    32    31    1
    59    63    59   am
    60    25    26    1
    61    27    26    1
    62    27    28    2
    63    59    58    1
    64    21    22    2
    65    26    29    1
    66    29    30    1
    67    40    39    1
    68    40    41    1
    69    23    22    1
    70    50    49    2
    71    22    24    1
    72    31    30    1
    73    39    35   am
    74    41    47   am
    75    41    42    2
    76    47    48    1
    77    58    57    1
    78    58    61    1
    79    49    57   am
    80    49    48    1
    81    33    34    1
    82    48    51    1
    83    61    62    1
    84    35    34    1
    85    35    36    2
    86    38    37    1
    87    34    37    1
    88   130   128   ar
    89   130   131   ar
    90   103   104    1
    91   133   131   ar
    92   133   135   ar
    93   128   127   ar
    94   131   129   ar
    95    51    52    1
    96     1     2    1
    97   104   107    1
    98   104   105    1
    99   107   108    1
   100   135   134   ar
   101    52    53   ar
   102    52    54   ar
   103    53    55   ar
   104   127   129   ar
   105   127   126    1
   106   129   132   ar
   107    54    56   ar
   108   109   108    1
   109    55    56   ar
   110   134   132   ar
   111   108   110    1
   112   126   123    1
   113     2     3    1
   114     2     5    1
   115   105   106    2
   116     3     4    2
   117   111   112    1
   118   122   123    1
   119   123   124    1
   120   112   115    1
   121   112   113    1
   122   124   125    2
   123   121   119    1
   124   115   116    1
   125   113   114    2
   126   119   118    2
   127   119   120    1
   128   118   117    1
   129   116   117    1
   130   160   159    1
   131   157   158    1
   132   157   156    1
   133   136   137    1
   134   158   159    1
   135   156   153    1
   136   139   138    2
   137   142   140    1
   138   153   154    1
   139   153   152    1
   140   137   138    1
   141   137   140    1
   142   154   155    2
   143   138   143   am
   144   140   141    1
   145   143   144    1
   146   146   145    2
   147   144   145    1
   148   144   147    1
   149   147   148    1
   150   148   149    1
   151   150   149    1
   152   150   151    1
