@<TRIPOS>MOLECULE
tmp/2o5kA00.pdb
 205 196 0 0 0
SMALL
GASTEIGER

@<TRIPOS>ATOM
      1  N          4.0350   36.7340  -10.4000 N.3    28  ILE28      -0.1231
      2  CA         4.5350   36.0130  -11.5690 C.3    28  ILE28       0.1692
      3  C          4.4600   34.5190  -11.3790 C.2    28  ILE28       0.2593
      4  O          4.7910   33.7630  -12.2910 O.2    28  ILE28      -0.2718
      5  CB         5.9820   36.3540  -11.8960 C.3    28  ILE28       0.0266
      6  CG1        6.8870   35.9520  -10.7200 C.3    28  ILE28       0.0019
      7  CG2        6.0790   37.8210  -12.2860 C.3    28  ILE28       0.0020
      8  CD1        8.3730   36.2780  -10.8990 C.3    28  ILE28       0.0001
      9  N          4.0320   34.1040  -10.1890 N.am   29  GLY29      -0.1942
     10  CA         3.9060   32.6910   -9.8820 C.3    29  GLY29       0.2014
     11  C          3.0450   32.5220   -8.6500 C.2    29  GLY29       0.2638
     12  O          3.1800   33.3020   -7.7040 O.2    29  GLY29      -0.2714
     13  N          2.1580   31.5260   -8.6610 N.am   30  ASN30      -0.1972
     14  CA         1.2700   31.2570   -7.5270 C.3    30  ASN30       0.1688
     15  C          0.8870   29.7760   -7.5140 C.2    30  ASN30       0.2292
     16  O          0.5740   29.2040   -8.5600 O.2    30  ASN30      -0.2864
     17  CB        -0.0060   32.1050   -7.6360 C.3    30  ASN30       0.1181
     18  CG        -0.6890   32.3220   -6.2830 C.2    30  ASN30       0.2629
     19  OD1       -0.6760   31.4410   -5.4100 O.2    30  ASN30      -0.2716
     20  ND2       -1.2930   33.4960   -6.1050 N.am   30  ASN30      -0.0877
     21  N          1.2070   25.5820   -5.4430 N.3    32  SER32      -0.1202
     22  CA         1.7000   24.5470   -4.5310 C.3    32  SER32       0.2020
     23  C          2.5300   25.1080   -3.4000 C.2    32  SER32       0.2618
     24  O          2.2990   24.8000   -2.2340 O.2    32  SER32      -0.2717
     25  CB         2.5330   23.5230   -5.2980 C.3    32  SER32       0.2103
     26  OG         1.8590   23.1290   -6.4810 O.3    32  SER32      -0.2182
     27  N          3.5120   25.9230   -3.7420 N.am   33  PHE33      -0.1975
     28  CA         4.3320   26.5230   -2.7160 C.3    33  PHE33       0.1639
     29  C          4.8690   27.8850   -3.1500 C.2    33  PHE33       0.2290
     30  O          5.6390   28.0210   -4.1090 O.2    33  PHE33      -0.2864
     31  CB         5.4700   25.5710   -2.3140 C.3    33  PHE33       0.0560
     32  CG         5.4770   25.2250   -0.8330 C.ar   33  PHE33      -0.0200
     33  CD1        4.4040   24.5440   -0.2470 C.ar   33  PHE33      -0.0042
     34  CD2        6.5570   25.5820   -0.0280 C.ar   33  PHE33      -0.0042
     35  CE1        4.4120   24.2380    1.1180 C.ar   33  PHE33      -0.0003
     36  CE2        6.5720   25.2810    1.3340 C.ar   33  PHE33      -0.0003
     37  CZ         5.4990   24.6010    1.9080 C.ar   33  PHE33      -0.0000
     38  N          5.4840   33.7380   -5.5020 N.3    36  VAL36      -0.1245
     39  CA         6.6070   34.4410   -6.0940 C.3    36  VAL36       0.1561
     40  C          6.1810   35.7000   -6.8330 C.2    36  VAL36       0.2260
     41  O          5.5310   35.6250   -7.8800 O.2    36  VAL36      -0.2867
     42  CB         7.3260   33.5700   -7.1060 C.3    36  VAL36       0.0252
     43  CG1        8.7530   34.0210   -7.2520 C.3    36  VAL36       0.0019
     44  CG2        7.2330   32.1260   -6.6960 C.3    36  VAL36       0.0019
     45  N         12.8470   38.8930   -6.8740 N.3    49  ALA49      -0.1245
     46  CA        11.6770   38.0430   -6.7510 C.3    49  ALA49       0.1562
     47  C         11.4030   37.8230   -5.2760 C.2    49  ALA49       0.2260
     48  O         12.2640   37.3570   -4.5310 O.2    49  ALA49      -0.2867
     49  CB        11.9140   36.7230   -7.4260 C.3    49  ALA49       0.0290
     50  N          9.4950   35.7610   -2.5570 N.3    51  LYS51      -0.1245
     51  CA         8.7840   34.4860   -2.4440 C.3    51  LYS51       0.1561
     52  C          7.9580   34.4830   -1.1780 C.2    51  LYS51       0.2260
     53  O          8.4490   34.1100   -0.1180 O.2    51  LYS51      -0.2867
     54  CB         9.7490   33.3030   -2.3960 C.3    51  LYS51       0.0271
     55  CG         9.0460   31.9740   -2.2650 C.3    51  LYS51       0.0035
     56  CD         9.9630   30.8400   -2.6070 C.3    51  LYS51       0.0206
     57  CE         9.2090   29.5150   -2.5350 C.3    51  LYS51       0.1093
     58  NZ        10.0210   28.3350   -3.0020 N.3    51  LYS51      -0.1314
     59  N         20.1370   30.3940   -6.8190 N.3    76  VAL76      -0.1245
     60  CA        19.4770   31.6810   -6.5860 C.3    76  VAL76       0.1561
     61  C         19.8540   32.2540   -5.2300 C.2    76  VAL76       0.2260
     62  O         19.7620   31.5830   -4.1980 O.2    76  VAL76      -0.2867
     63  CB        17.9120   31.5540   -6.7250 C.3    76  VAL76       0.0252
     64  CG1       17.3560   30.5300   -5.7410 C.3    76  VAL76       0.0019
     65  CG2       17.2580   32.9070   -6.5300 C.3    76  VAL76       0.0019
     66  N         14.8540   37.4710   -3.3660 N.3    98  LEU98      -0.1231
     67  CA        15.8630   36.7510   -4.1390 C.3    98  LEU98       0.1693
     68  C         16.1860   37.3350   -5.5070 C.2    98  LEU98       0.2592
     69  O         15.4800   38.2070   -6.0140 O.2    98  LEU98      -0.2718
     70  CB        15.4200   35.3110   -4.3460 C.3    98  LEU98       0.0284
     71  CG        14.7880   34.6420   -3.1390 C.3    98  LEU98       0.0019
     72  CD1       14.3690   33.2370   -3.5020 C.3    98  LEU98       0.0001
     73  CD2       15.7690   34.6440   -1.9990 C.3    98  LEU98       0.0001
     74  N         17.2560   36.8060   -6.0960 N.am   99  ASP99      -0.1960
     75  CA        17.7290   37.1970   -7.4130 C.3    99  ASP99       0.1840
     76  C         16.7280   36.7810   -8.4900 C.2    99  ASP99       0.2622
     77  O         16.3800   35.6130   -8.6350 O.2    99  ASP99      -0.2715
     78  CB        19.0960   36.5660   -7.6770 C.3    99  ASP99       0.1450
     79  CG        20.2290   37.4300   -7.1740 C.2    99  ASP99       0.3671
     80  OD1       19.9890   38.1940   -6.2190 O.co2  99  ASP99      -0.2456
     81  OD2       21.3540   37.3460   -7.7170 O.co2  99  ASP99      -0.2456
     82  N         16.2640   37.7530   -9.2540 N.am  100  TYR100     -0.1960
     83  CA        15.2830   37.4620  -10.2730 C.3   100  TYR100      0.1771
     84  C         15.8770   36.8190  -11.5090 C.2   100  TYR100      0.2619
     85  O         16.7170   37.4210  -12.1760 O.2   100  TYR100     -0.2715
     86  CB        14.5830   38.7420  -10.6880 C.3   100  TYR100      0.0574
     87  CG        13.7580   38.5970  -11.9320 C.ar  100  TYR100     -0.0198
     88  CD1       12.5050   38.0130  -11.8850 C.ar  100  TYR100     -0.0009
     89  CD2       14.2190   39.0740  -13.1480 C.ar  100  TYR100     -0.0009
     90  CE1       11.7200   37.9150  -13.0170 C.ar  100  TYR100      0.0417
     91  CE2       13.4470   38.9800  -14.2870 C.ar  100  TYR100      0.0417
     92  CZ        12.1970   38.4030  -14.2140 C.ar  100  TYR100      0.1957
     93  OH        11.4090   38.3340  -15.3450 O.3   100  TYR100     -0.2866
     94  N         15.4490   35.6070  -11.8310 N.am  101  VAL101     -0.1964
     95  CA        15.9290   34.9680  -13.0410 C.3   101  VAL101      0.1712
     96  C         14.6960   34.7590  -13.8850 C.2   101  VAL101      0.2458
     97  O         13.6140   34.5360  -13.3540 O.2   101  VAL101     -0.2730
     98  CB        16.5750   33.6360  -12.7600 C.3   101  VAL101      0.0289
     99  CG1       16.9000   32.9430  -14.0650 C.3   101  VAL101      0.0023
    100  CG2       17.8210   33.8520  -11.9410 C.3   101  VAL101      0.0023
    101  N         14.8320   34.8160  -15.2200 N.am  102  PRO102     -0.2716
    102  CA        13.6580   34.6300  -16.0840 C.3   102  PRO102      0.1536
    103  C         13.1680   33.2030  -16.2840 C.2   102  PRO102      0.2598
    104  O         12.6560   32.5670  -15.3650 O.2   102  PRO102     -0.2715
    105  CB        14.0890   35.2720  -17.4070 C.3   102  PRO102      0.0310
    106  CG        15.2600   36.1520  -17.0310 C.3   102  PRO102      0.0237
    107  CD        15.9690   35.3180  -16.0050 C.3   102  PRO102      0.0939
    108  N         13.3180   32.7250  -17.5120 N.am  103  GLU103     -0.1964
    109  CA        12.8920   31.3860  -17.9120 C.3   103  GLU103      0.1733
    110  C         13.2680   30.2850  -16.9240 C.2   103  GLU103      0.2617
    111  O         13.7130   30.5590  -15.8220 O.2   103  GLU103     -0.2715
    112  CB        13.4860   31.0700  -19.2830 C.3   103  GLU103      0.0429
    113  CG        12.9660   31.9650  -20.3940 C.3   103  GLU103      0.1163
    114  CD        11.6860   31.4440  -20.9800 C.2   103  GLU103      0.3649
    115  OE1       11.0020   32.1870  -21.7190 O.co2 103  GLU103     -0.2457
    116  OE2       11.3690   30.2740  -20.7000 O.co2 103  GLU103     -0.2457
    117  N         13.0560   29.0370  -17.3270 N.am  104  THR104     -0.1951
    118  CA        13.4080   27.8690  -16.5170 C.3   104  THR104      0.1897
    119  C         13.5650   26.6200  -17.4250 C.2   104  THR104      0.2313
    120  O         13.2250   26.6440  -18.6100 O.2   104  THR104     -0.2863
    121  CB        12.3560   27.5840  -15.3970 C.3   104  THR104      0.1794
    122  OG1       11.0790   27.2750  -15.9710 O.3   104  THR104     -0.2208
    123  CG2       12.2300   28.7780  -14.4910 C.3   104  THR104      0.0378
    124  N         11.8720   24.2170  -17.1520 N.3   106  TYR106     -0.1227
    125  CA        10.5070   23.7910  -17.3930 C.3   106  TYR106      0.1736
    126  C          9.8560   24.5270  -18.5480 C.2   106  TYR106      0.2595
    127  O          9.3470   23.9070  -19.4800 O.2   106  TYR106     -0.2718
    128  CB         9.6630   24.0030  -16.1570 C.3   106  TYR106      0.0548
    129  CG         8.2090   23.7090  -16.3710 C.ar  106  TYR106     -0.0200
    130  CD1        7.7480   22.4070  -16.4290 C.ar  106  TYR106     -0.0009
    131  CD2        7.2780   24.7370  -16.4300 C.ar  106  TYR106     -0.0009
    132  CE1        6.3830   22.1360  -16.5180 C.ar  106  TYR106      0.0417
    133  CE2        5.9140   24.4760  -16.5270 C.ar  106  TYR106      0.0417
    134  CZ         5.4770   23.1720  -16.5580 C.ar  106  TYR106      0.1957
    135  OH         4.1450   22.8680  -16.5430 O.3   106  TYR106     -0.2866
    136  N          9.8590   25.8540  -18.4670 N.am  107  ARG107     -0.1980
    137  CA         9.2610   26.6830  -19.5010 C.3   107  ARG107      0.1597
    138  C         10.0580   26.4900  -20.7850 C.2   107  ARG107      0.2287
    139  O          9.5280   26.6000  -21.8880 O.2   107  ARG107     -0.2864
    140  CB         9.2800   28.1510  -19.0790 C.3   107  ARG107      0.0334
    141  CG         9.2540   28.3710  -17.5660 C.3   107  ARG107      0.0492
    142  CD         8.0670   27.6840  -16.8150 C.3   107  ARG107      0.2205
    143  NE         8.0100   28.0360  -15.3820 N.pl3 107  ARG107     -0.0865
    144  CZ         6.9870   27.7890  -14.5610 C.cat 107  ARG107      0.5346
    145  NH1        7.0570   28.1670  -13.2930 N.pl3 107  ARG107      0.1354
    146  NH2        5.8960   27.1720  -14.9930 N.pl3 107  ARG107      0.1354
    147  N         13.5820   19.3170   -9.9260 N.3   149  LYS149     -0.1245
    148  CA        12.6380   19.1280  -11.0140 C.3   149  LYS149      0.1561
    149  C         12.8050   20.2450  -12.0130 C.2   149  LYS149      0.2260
    150  O         13.2270   21.3420  -11.6650 O.2   149  LYS149     -0.2867
    151  CB        11.2030   19.1350  -10.4690 C.3   149  LYS149      0.0271
    152  CG        10.1410   19.6060  -11.4550 C.3   149  LYS149      0.0035
    153  CD         8.7320   19.5780  -10.8490 C.3   149  LYS149      0.0206
    154  CE         8.5280   20.5430   -9.6490 C.3   149  LYS149      0.1093
    155  NZ         8.9270   20.0180   -8.3080 N.3   149  LYS149     -0.1314
    156  N         10.9430   22.3100  -13.0360 N.3   151  GLN151     -0.1231
    157  CA        10.3540   23.5560  -12.6280 C.3   151  GLN151      0.1698
    158  C         11.2120   24.4520  -11.7410 C.2   151  GLN151      0.2592
    159  O         11.0900   25.6680  -11.8210 O.2   151  GLN151     -0.2718
    160  CB         9.0030   23.3200  -11.9630 C.3   151  GLN151      0.0381
    161  CG         7.9080   23.0120  -12.9440 C.3   151  GLN151      0.0905
    162  CD         7.7530   21.5290  -13.1970 C.2   151  GLN151      0.2608
    163  OE1        6.7670   20.9270  -12.7580 O.2   151  GLN151     -0.2717
    164  NE2        8.7180   20.9270  -13.8950 N.am  151  GLN151     -0.0878
    165  N         12.0860   23.8780  -10.9150 N.am  152  ASN152     -0.1974
    166  CA        12.9050   24.6840  -10.0050 C.3   152  ASN152      0.1688
    167  C         14.3400   24.9150  -10.4460 C.2   152  ASN152      0.2292
    168  O         15.2050   25.2620   -9.6440 O.2   152  ASN152     -0.2864
    169  CB        12.8770   24.0730   -8.6050 C.3   152  ASN152      0.1181
    170  CG        11.4820   24.0850   -7.9920 C.2   152  ASN152      0.2629
    171  OD1       10.7950   25.0940   -8.0120 O.2   152  ASN152     -0.2716
    172  ND2       11.0720   22.9650   -7.4320 N.am  152  ASN152     -0.0877
    173  N         15.8830   27.3880  -12.3950 N.3   154  LEU154     -0.1245
    174  CA        15.8500   28.7020  -13.0600 C.3   154  LEU154      0.1561
    175  C         17.0360   28.8590  -14.0080 C.2   154  LEU154      0.2260
    176  O         18.1300   28.3690  -13.7050 O.2   154  LEU154     -0.2867
    177  CB        15.9180   29.8300  -12.0310 C.3   154  LEU154      0.0270
    178  CG        14.8820   29.9160  -10.9170 C.3   154  LEU154      0.0019
    179  CD1       15.3720   30.8660   -9.8570 C.3   154  LEU154      0.0001
    180  CD2       13.5690   30.3720  -11.4550 C.3   154  LEU154      0.0001
    181  N         16.4690   26.7050   -7.6160 N.3   165  CYS165     -0.1221
    182  CA        15.5460   27.4020   -6.7350 C.3   165  CYS165      0.1808
    183  C         14.6030   26.4880   -5.9740 C.2   165  CYS165      0.2601
    184  O         14.6200   25.2640   -6.1110 O.2   165  CYS165     -0.2717
    185  CB        14.7050   28.4010   -7.5300 C.3   165  CYS165      0.0970
    186  SG        13.4800   27.6170   -8.6440 S.3   165  CYS165     -0.0800
    187  N         13.7640   27.1340   -5.1750 N.am  166  ASP166     -0.1973
    188  CA        12.7670   26.4730   -4.3390 C.3   166  ASP166      0.1709
    189  C         13.3600   25.4270   -3.4230 C.2   166  ASP166      0.2293
    190  O         13.3930   24.2470   -3.7610 O.2   166  ASP166     -0.2864
    191  CB        11.6920   25.8070   -5.1840 C.3   166  ASP166      0.1436
    192  CG        10.4100   25.5810   -4.4080 C.2   166  ASP166      0.3671
    193  OD1        9.3970   26.2150   -4.7690 O.co2 166  ASP166     -0.2456
    194  OD2       10.4140   24.7890   -3.4360 O.co2 166  ASP166     -0.2456
    195  N          5.8630   14.3810   -8.5990 N.3   186  ARG186     -0.1245
    196  CA         5.2630   13.3630   -9.4550 C.3   186  ARG186      0.1563
    197  C          6.2590   12.6720  -10.3870 C.2   186  ARG186      0.2260
    198  O          6.7190   11.5740  -10.0920 O.2   186  ARG186     -0.2867
    199  CB         4.1290   13.9640  -10.2930 C.3   186  ARG186      0.0307
    200  CG         4.0050   15.4870  -10.2110 C.3   186  ARG186      0.0489
    201  CD         5.2450   16.2200  -10.7450 C.3   186  ARG186      0.2205
    202  NE         5.1810   17.6640  -10.5070 N.pl3 186  ARG186     -0.0865
    203  CZ         4.9120   18.5770  -11.4380 C.cat 186  ARG186      0.5346
    204  NH1        4.6790   18.2090  -12.6910 N.pl3 186  ARG186      0.1354
    205  NH2        4.8770   19.8620  -11.1110 N.pl3 186  ARG186      0.1354
@<TRIPOS>BOND
     1   139   138    2
     2   115   114   ar
     3   114   116   ar
     4   114   113    1
     5   138   137    1
     6   113   112    1
     7   137   140    1
     8   137   136    1
     9   127   126    2
    10   112   109    1
    11   140   141    1
    12   120   119    2
    13   126   136   am
    14   126   125    1
    15   109   108    1
    16   109   110    1
    17   141   142    1
    18   108   103   am
    19   119   118    1
    20   105   106    1
    21   105   102    1
    22   125   124    1
    23   125   128    1
    24   117   110   am
    25   117   118    1
    26   106   107    1
    27   110   111    2
    28   142   143    1
    29   134   135    1
    30   134   133   ar
    31   134   132   ar
    32   133   131   ar
    33   132   130   ar
    34   118   121    1
    35   131   129   ar
    36   130   129   ar
    37   129   128    1
    38   103   102    1
    39   103   104    2
    40   102   101    1
    41   107   101    1
    42   122   121    1
    43   121   123    1
    44   143   144    2
    45    93    92    1
    46   101    96   am
    47   146   144    1
    48   144   145    1
    49    91    92   ar
    50    91    89   ar
    51    92    90   ar
    52    99    98    1
    53   175   176    2
    54   175   174    1
    55   164   162   am
    56    96    97    2
    57    96    95    1
    58   162   161    1
    59   162   163    2
    60    89    87   ar
    61   174   173    1
    62   174   177    1
    63    95    98    1
    64    95    94    1
    65   156   157    1
    66    90    88   ar
    67   161   160    1
    68    98   100    1
    69   204   203    1
    70   157   160    1
    71   157   158    1
    72     4     3    2
    73     7     5    1
    74    85    84    2
    75   177   178    1
    76   149   150    2
    77   149   148    1
    78    87    88   ar
    79    87    86    1
    80     5     2    1
    81     5     6    1
    82    94    84   am
    83   159   158    2
    84   158   165   am
    85     2     3    1
    86     2     1    1
    87    84    83    1
    88   152   153    1
    89   152   151    1
    90   180   178    1
    91   203   205    1
    92   203   202    2
    93     3     9   am
    94   148   151    1
    95   148   147    1
    96   178   179    1
    97   165   166    1
    98     8     6    1
    99   153   154    1
   100   201   202    1
   101   201   200    1
   102    86    83    1
   103   167   166    1
   104   167   168    2
   105   197   198    2
   106   197   196    1
   107   199   200    1
   108   199   196    1
   109    83    82    1
   110     9    10    1
   111   166   169    1
   112    10    11    1
   113   154   155    1
   114   196   195    1
   115    82    76   am
   116    13    11   am
   117    13    14    1
   118    11    12    2
   119   186   185    1
   120    77    76    2
   121   169   170    1
   122    16    15    2
   123    76    75    1
   124   171   170    2
   125   170   172   am
   126    41    40    2
   127    81    79   ar
   128    78    75    1
   129    78    79    1
   130    17    14    1
   131    17    18    1
   132   181   182    1
   133   185   182    1
   134    14    15    1
   135    49    46    1
   136    75    74    1
   137    43    42    1
   138    79    80   ar
   139    42    44    1
   140    42    39    1
   141    45    46    1
   142    40    39    1
   143    59    60    1
   144    46    47    1
   145   182   183    1
   146    63    60    1
   147    63    65    1
   148    63    64    1
   149    60    61    1
   150    26    25    1
   151    18    20   am
   152    18    19    2
   153   184   183    2
   154    74    68   am
   155    39    38    1
   156    69    68    2
   157   183   187   am
   158    68    67    1
   159    21    22    1
   160    25    22    1
   161    47    48    2
   162    61    62    2
   163   191   192    1
   164   191   188    1
   165   187   188    1
   166   193   192   ar
   167    22    23    1
   168   192   194   ar
   169    70    67    1
   170    70    71    1
   171   188   189    1
   172    67    66    1
   173    30    29    2
   174   190   189    2
   175    27    23   am
   176    27    28    1
   177    72    71    1
   178    23    24    2
   179    29    28    1
   180    71    73    1
   181    58    57    1
   182    28    31    1
   183    56    57    1
   184    56    55    1
   185    50    51    1
   186    51    54    1
   187    51    52    1
   188    54    55    1
   189    31    32    1
   190    52    53    2
   191    32    33   ar
   192    32    34   ar
   193    33    35   ar
   194    34    36   ar
   195    35    37   ar
   196    36    37   ar
