@<TRIPOS>MOLECULE
tmp/2o5wA00.pdb
 106 100 0 0 0
SMALL
GASTEIGER

@<TRIPOS>ATOM
      1  N        -32.0150    1.8210   65.6220 N.3     6  LYS6       -0.1245
      2  CA       -30.7960    2.6180   65.5610 C.3     6  LYS6        0.1561
      3  C        -31.1160    3.9420   64.8770 C.2     6  LYS6        0.2260
      4  O        -31.8370    3.9710   63.8780 O.2     6  LYS6       -0.2867
      5  CB       -29.7010    1.8990   64.7710 C.3     6  LYS6        0.0271
      6  CG       -29.1790    0.6250   65.3770 C.3     6  LYS6        0.0035
      7  CD       -28.1110    0.0570   64.4740 C.3     6  LYS6        0.0206
      8  CE       -27.8210   -1.3960   64.7870 C.3     6  LYS6        0.1093
      9  NZ       -27.0380   -2.0190   63.6800 N.3     6  LYS6       -0.1314
     10  N        -17.7990   -7.8070   63.6110 N.3    28  ARG28      -0.1245
     11  CA       -19.1940   -7.6460   63.9840 C.3    28  ARG28       0.1563
     12  C        -19.9040   -8.9790   64.2000 C.2    28  ARG28       0.2260
     13  O        -19.6380   -9.9580   63.4950 O.2    28  ARG28      -0.2867
     14  CB       -19.9210   -6.8330   62.9210 C.3    28  ARG28       0.0307
     15  CG       -19.4700   -5.3930   62.8430 C.3    28  ARG28       0.0489
     16  CD       -20.1830   -4.6500   61.7180 C.3    28  ARG28       0.2205
     17  NE       -21.6420   -4.6250   61.8670 N.pl3  28  ARG28      -0.0865
     18  CZ       -22.3020   -3.8370   62.7130 C.cat  28  ARG28       0.5346
     19  NH1      -21.6490   -3.0110   63.5150 N.pl3  28  ARG28       0.1354
     20  NH2      -23.6230   -3.8840   62.7690 N.pl3  28  ARG28       0.1354
     21  N        -14.3900   -3.6150   61.3360 N.3    36  GLN36      -0.1245
     22  CA       -14.5790   -2.1700   61.4800 C.3    36  GLN36       0.1566
     23  C        -13.8900   -1.6030   62.7130 C.2    36  GLN36       0.2260
     24  O        -13.4520   -2.3400   63.5990 O.2    36  GLN36      -0.2867
     25  CB       -16.0730   -1.8450   61.5970 C.3    36  GLN36       0.0367
     26  CG       -16.7430   -2.4420   62.8500 C.3    36  GLN36       0.0905
     27  CD       -18.1030   -1.8240   63.2170 C.2    36  GLN36       0.2608
     28  OE1      -18.6000   -2.0370   64.3280 O.2    36  GLN36      -0.2717
     29  NE2      -18.7040   -1.0710   62.2930 N.am   36  GLN36      -0.0878
     30  N        -18.0050    2.0010   66.0680 N.3    39  THR39      -0.1203
     31  CA       -19.1460    2.8080   65.6260 C.3    39  THR39       0.1994
     32  C        -20.3000    2.7420   66.6180 C.2    39  THR39       0.2618
     33  O        -20.3590    1.8560   67.4610 O.2    39  THR39      -0.2717
     34  CB       -19.6930    2.3560   64.2500 C.3    39  THR39       0.1784
     35  OG1      -20.1800    1.0200   64.3480 O.3    39  THR39      -0.2211
     36  CG2      -18.6270    2.4100   63.1860 C.3    39  THR39       0.0376
     37  N        -21.2340    3.6730   66.4930 N.am   40  GLY40      -0.1942
     38  CA       -22.4290    3.6790   67.3210 C.3    40  GLY40       0.2014
     39  C        -23.2800    4.8960   67.0360 C.2    40  GLY40       0.2639
     40  O        -22.7760    5.9340   66.6250 O.2    40  GLY40      -0.2714
     41  N        -24.5820    4.7630   67.2440 N.am   41  SER41      -0.1949
     42  CA       -25.4830    5.8920   67.1350 C.3    41  SER41       0.1924
     43  C        -25.1950    6.9370   68.2040 C.2    41  SER41       0.2314
     44  O        -24.7010    6.6360   69.3050 O.2    41  SER41      -0.2863
     45  CB       -26.9290    5.4370   67.2470 C.3    41  SER41       0.2116
     46  OG       -27.1830    4.3830   66.3380 O.3    41  SER41      -0.2180
     47  N        -18.5480    7.3340   74.9710 N.3    54  ARG54      -0.1231
     48  CA       -19.4250    6.2670   75.4670 C.3    54  ARG54       0.1694
     49  C        -19.2710    4.9720   74.6640 C.2    54  ARG54       0.2591
     50  O        -19.2550    3.8870   75.2390 O.2    54  ARG54      -0.2718
     51  CB       -20.8940    6.7130   75.5020 C.3    54  ARG54       0.0321
     52  CG       -21.8790    5.6150   75.9330 C.3    54  ARG54       0.0489
     53  CD       -23.3310    6.0010   75.6600 C.3    54  ARG54       0.2205
     54  NE       -23.4920    6.6120   74.3380 N.pl3  54  ARG54      -0.0865
     55  CZ       -23.6260    5.9380   73.1970 C.cat  54  ARG54       0.5346
     56  NH1      -23.6340    4.6130   73.1870 N.pl3  54  ARG54       0.1354
     57  NH2      -23.7510    6.6000   72.0590 N.pl3  54  ARG54       0.1354
     58  N        -19.1540    5.0920   73.3430 N.am   55  GLU55      -0.1979
     59  CA       -18.9480    3.9350   72.4670 C.3    55  GLU55       0.1602
     60  C        -17.6170    3.1960   72.6720 C.2    55  GLU55       0.2287
     61  O        -17.5690    1.9660   72.5870 O.2    55  GLU55      -0.2864
     62  CB       -19.0970    4.3460   70.9990 C.3    55  GLU55       0.0415
     63  CG       -20.5260    4.3430   70.5100 C.3    55  GLU55       0.1163
     64  CD       -21.1760    2.9880   70.6730 C.2    55  GLU55       0.3649
     65  OE1      -20.5090    1.9610   70.4150 O.co2  55  GLU55      -0.2457
     66  OE2      -22.3570    2.9410   71.0660 O.co2  55  GLU55      -0.2457
     67  N        -17.7300   -0.6500   73.8210 N.3    59  GLU59      -0.1245
     68  CA       -17.3130   -1.6180   72.8130 C.3    59  GLU59       0.1567
     69  C        -15.9570   -2.2560   73.0820 C.2    59  GLU59       0.2260
     70  O        -15.7670   -3.4390   72.7960 O.2    59  GLU59      -0.2867
     71  CB       -17.3120   -0.9850   71.4230 C.3    59  GLU59       0.0388
     72  CG       -18.6670   -0.9480   70.7440 C.3    59  GLU59       0.1160
     73  CD       -18.5600   -0.6980   69.2450 C.2    59  GLU59       0.3649
     74  OE1      -17.4570   -0.3660   68.7680 O.co2  59  GLU59      -0.2457
     75  OE2      -19.5790   -0.8360   68.5350 O.co2  59  GLU59      -0.2457
     76  N        -33.1580   -0.1850   61.2440 N.3    90  TYR90      -0.1241
     77  CA       -33.5190    1.2190   61.1550 C.3    90  TYR90       0.1605
     78  C        -34.9930    1.3570   60.8310 C.2    90  TYR90       0.2264
     79  O        -35.5490    0.5390   60.1030 O.2    90  TYR90      -0.2867
     80  CB       -32.6770    1.9090   60.0810 C.3    90  TYR90       0.0534
     81  CG       -31.2120    2.0210   60.4370 C.ar   90  TYR90      -0.0201
     82  CD1      -30.3110    1.0110   60.1020 C.ar   90  TYR90      -0.0009
     83  CD2      -30.7250    3.1380   61.1110 C.ar   90  TYR90      -0.0009
     84  CE1      -28.9620    1.1120   60.4300 C.ar   90  TYR90       0.0417
     85  CE2      -29.3860    3.2500   61.4400 C.ar   90  TYR90       0.0417
     86  CZ       -28.5100    2.2320   61.1010 C.ar   90  TYR90       0.1957
     87  OH       -27.1790    2.3410   61.4310 O.3    90  TYR90      -0.2866
     88  N        -19.1020   -6.5120   72.5020 N.3   116  GLU116     -0.1231
     89  CA       -20.1740   -6.6500   71.5140 C.3   116  GLU116      0.1699
     90  C        -19.7080   -7.3190   70.2350 C.2   116  GLU116      0.2592
     91  O        -20.5240   -7.6490   69.3700 O.2   116  GLU116     -0.2718
     92  CB       -20.7580   -5.2790   71.1790 C.3   116  GLU116      0.0402
     93  CG       -21.6950   -4.7280   72.2350 C.3   116  GLU116      0.1161
     94  CD       -21.5150   -3.2370   72.4400 C.2   116  GLU116      0.3649
     95  OE1      -21.2260   -2.5180   71.4470 O.co2 116  GLU116     -0.2457
     96  OE2      -21.6500   -2.7860   73.6040 O.co2 116  GLU116     -0.2457
     97  N        -18.4010   -7.5120   70.1160 N.am  117  HIS117     -0.1976
     98  CA       -17.8130   -8.0310   68.8940 C.3   117  HIS117      0.1656
     99  C        -17.2900   -9.4420   69.0900 C.2   117  HIS117      0.2291
    100  O        -17.1760   -9.9320   70.2130 O.2   117  HIS117     -0.2864
    101  CB       -16.6980   -7.1020   68.3940 C.3   117  HIS117      0.0771
    102  CG       -17.2000   -5.8150   67.8180 C.ar  117  HIS117      0.0820
    103  ND1      -17.6120   -4.7580   68.6000 N.ar  117  HIS117     -0.2267
    104  CD2      -17.3590   -5.4150   66.5350 C.ar  117  HIS117      0.1154
    105  CE1      -18.0070   -3.7650   67.8240 C.ar  117  HIS117      0.1986
    106  NE2      -17.8610   -4.1370   66.5660 N.ar  117  HIS117     -0.2212
@<TRIPOS>BOND
     1    80    81    1
     2    80    77    1
     3    82    84   ar
     4    82    81   ar
     5    79    78    2
     6    84    86   ar
     7    81    83   ar
     8    78    77    1
     9    86    87    1
    10    86    85   ar
    11    83    85   ar
    12    77    76    1
    13    21    22    1
    14    22    25    1
    15    22    23    1
    16    25    26    1
    17    16    17    1
    18    16    15    1
    19    17    18    2
    20    29    27   am
    21    18    20    1
    22    18    19    1
    23    23    24    2
    24    15    14    1
    25    26    27    1
    26    14    11    1
    27    36    34    1
    28    27    28    2
    29    13    12    2
    30    10    11    1
    31     9     8    1
    32     4     3    2
    33    11    12    1
    34    34    35    1
    35    34    31    1
    36     7     8    1
    37     7     6    1
    38     5     6    1
    39     5     2    1
    40     3     2    1
    41     2     1    1
    42    31    30    1
    43    31    32    1
    44    46    45    1
    45    37    32   am
    46    37    38    1
    47   104   106   ar
    48   104   102   ar
    49   106   105   ar
    50    32    33    2
    51    40    39    2
    52    39    41   am
    53    39    38    1
    54    42    41    1
    55    42    45    1
    56    42    43    1
    57   102   101    1
    58   102   103   ar
    59   105   103   ar
    60    43    44    2
    61   101    98    1
    62    75    73   ar
    63    74    73   ar
    64    98    99    1
    65    98    97    1
    66    99   100    2
    67    73    72    1
    68    91    90    2
    69    97    90   am
    70    90    89    1
    71    65    64   ar
    72    63    64    1
    73    63    62    1
    74    64    66   ar
    75    72    71    1
    76    62    59    1
    77    92    89    1
    78    92    93    1
    79    71    68    1
    80    95    94   ar
    81    89    88    1
    82    57    55    1
    83    93    94    1
    84    94    96   ar
    85    59    60    1
    86    59    58    1
    87    61    60    2
    88    70    69    2
    89    68    69    1
    90    68    67    1
    91    56    55    1
    92    55    54    2
    93    58    49   am
    94    54    53    1
    95    49    50    2
    96    49    48    1
    97    47    48    1
    98    48    51    1
    99    51    52    1
   100    53    52    1
