@<TRIPOS>MOLECULE
tmp/2o63A00.pdb
 123 115 0 0 0
SMALL
GASTEIGER

@<TRIPOS>ATOM
      1  N         81.6290   39.4390    4.2210 N.3    12  LEU12      -0.1245
      2  CA        80.2370   39.3440    4.6710 C.3    12  LEU12       0.1561
      3  C         79.9950   38.1080    5.5300 C.2    12  LEU12       0.2260
      4  O         79.2490   38.1530    6.5090 O.2    12  LEU12      -0.2867
      5  CB        79.2850   39.3530    3.4670 C.3    12  LEU12       0.0270
      6  CG        79.3870   40.6190    2.5980 C.3    12  LEU12       0.0019
      7  CD1       78.6160   40.4640    1.3020 C.3    12  LEU12       0.0001
      8  CD2       78.8880   41.8570    3.3600 C.3    12  LEU12       0.0001
      9  N         80.2070   27.2650    2.6430 N.3    17  PHE17      -0.1241
     10  CA        79.9480   27.8900    1.3520 C.3    17  PHE17       0.1605
     11  C         81.1260   28.7300    0.8280 C.2    17  PHE17       0.2264
     12  O         81.0080   29.3640   -0.2270 O.2    17  PHE17      -0.2867
     13  CB        78.7180   28.7910    1.4800 C.3    17  PHE17       0.0534
     14  CG        78.7880   29.7640    2.6330 C.ar   17  PHE17      -0.0203
     15  CD1       79.4280   30.9940    2.4900 C.ar   17  PHE17      -0.0042
     16  CD2       78.2270   29.4370    3.8670 C.ar   17  PHE17      -0.0042
     17  CE1       79.4970   31.8880    3.5540 C.ar   17  PHE17      -0.0003
     18  CE2       78.2990   30.3210    4.9440 C.ar   17  PHE17      -0.0003
     19  CZ        78.9260   31.5510    4.7890 C.ar   17  PHE17      -0.0000
     20  N         82.7190   34.8610    1.4770 N.3    20  VAL20      -0.1245
     21  CA        82.0000   35.8240    0.6540 C.3    20  VAL20       0.1561
     22  C         82.2830   37.2670    1.0830 C.2    20  VAL20       0.2260
     23  O         82.1460   37.6020    2.2580 O.2    20  VAL20      -0.2867
     24  CB        80.4930   35.5640    0.7410 C.3    20  VAL20       0.0252
     25  CG1       79.7230   36.5050   -0.1850 C.3    20  VAL20       0.0019
     26  CG2       80.1990   34.1100    0.4050 C.3    20  VAL20       0.0019
     27  N         78.5420   40.2470   -4.6850 N.3    33  ALA33      -0.1245
     28  CA        79.0750   39.4130   -3.6120 C.3    33  ALA33       0.1562
     29  C         80.1400   38.5660   -4.2780 C.2    33  ALA33       0.2260
     30  O         79.9110   38.0580   -5.3600 O.2    33  ALA33      -0.2867
     31  CB        78.0010   38.5510   -3.0210 C.3    33  ALA33       0.0290
     32  N         82.3750   35.2930   -3.9200 N.3    35  LYS35      -0.1245
     33  CA        82.5600   34.0420   -3.2060 C.3    35  LYS35       0.1561
     34  C         83.8350   33.3630   -3.6380 C.2    35  LYS35       0.2260
     35  O         84.0450   33.1430   -4.8190 O.2    35  LYS35      -0.2867
     36  CB        81.3740   33.1010   -3.4540 C.3    35  LYS35       0.0271
     37  CG        81.4870   31.7650   -2.7150 C.3    35  LYS35       0.0035
     38  CD        80.4740   30.7190   -3.2120 C.3    35  LYS35       0.0206
     39  CE        79.2060   30.7180   -2.3900 C.3    35  LYS35       0.1093
     40  NZ        78.5790   29.3470   -2.3480 N.3    35  LYS35      -0.1314
     41  N         69.7350   34.1560   -6.7270 N.3    72  ILE72      -0.1245
     42  CA        70.8410   35.0970   -6.8940 C.3    72  ILE72       0.1561
     43  C         71.5650   34.6260   -8.1440 C.2    72  ILE72       0.2260
     44  O         71.8930   33.4510   -8.2620 O.2    72  ILE72      -0.2867
     45  CB        71.8360   35.1070   -5.6790 C.3    72  ILE72       0.0252
     46  CG1       71.7630   36.4080   -4.8910 C.3    72  ILE72       0.0019
     47  CG2       73.2910   35.0920   -6.1240 C.3    72  ILE72       0.0019
     48  CD1       70.5610   36.6010   -4.1640 C.3    72  ILE72       0.0001
     49  N         78.6310   37.3090   -7.8140 N.3    88  LEU88      -0.1231
     50  CA        77.1870   37.1630   -7.6640 C.3    88  LEU88       0.1693
     51  C         76.5510   38.5060   -7.3630 C.2    88  LEU88       0.2592
     52  O         77.2230   39.4350   -6.9320 O.2    88  LEU88      -0.2718
     53  CB        76.9060   36.2000   -6.5140 C.3    88  LEU88       0.0284
     54  CG        77.4540   34.7770   -6.7130 C.3    88  LEU88       0.0019
     55  CD1       78.0910   34.2100   -5.4440 C.3    88  LEU88       0.0001
     56  CD2       76.3680   33.8400   -7.2380 C.3    88  LEU88       0.0001
     57  N         75.2580   38.6340   -7.5930 N.am   89  GLU89      -0.1966
     58  CA        74.6170   39.9040   -7.2970 C.3    89  GLU89       0.1733
     59  C         74.4720   40.0940   -5.7870 C.2    89  GLU89       0.2616
     60  O         74.4830   39.1240   -5.0150 O.2    89  GLU89      -0.2715
     61  CB        73.3100   40.1330   -8.0950 C.3    89  GLU89       0.0429
     62  CG        72.1740   39.1930   -7.8760 C.3    89  GLU89       0.1163
     63  CD        71.1250   39.2510   -8.9920 C.2    89  GLU89       0.3649
     64  OE1       71.0120   40.2530   -9.7370 O.co2  89  GLU89      -0.2457
     65  OE2       70.3960   38.2690   -9.0990 O.co2  89  GLU89      -0.2457
     66  N         74.4140   41.3610   -5.3920 N.am   90  ARG90      -0.1964
     67  CA        74.3320   41.7520   -3.9990 C.3    90  ARG90       0.1714
     68  C         73.1780   42.7250   -3.7550 C.2    90  ARG90       0.2458
     69  O         73.3300   43.9310   -3.8340 O.2    90  ARG90      -0.2730
     70  CB        75.6650   42.3700   -3.5450 C.3    90  ARG90       0.0347
     71  CG        75.6810   42.8580   -2.0890 C.3    90  ARG90       0.0492
     72  CD        77.0700   43.0140   -1.4810 C.3    90  ARG90       0.2205
     73  NE        77.8400   44.0720   -2.1200 N.pl3  90  ARG90      -0.0865
     74  CZ        77.6690   45.3770   -1.9170 C.cat  90  ARG90       0.5346
     75  NH1       76.7370   45.8250   -1.0970 N.pl3  90  ARG90       0.1354
     76  NH2       78.4340   46.2420   -2.5580 N.pl3  90  ARG90       0.1354
     77  N         71.9990   42.1910   -3.5090 N.am   91  PRO91      -0.2716
     78  CA        70.8920   43.0370   -3.0800 C.3    91  PRO91       0.1536
     79  C         71.2720   43.6540   -1.7340 C.2    91  PRO91       0.2598
     80  O         72.1140   43.0970   -1.0080 O.2    91  PRO91      -0.2715
     81  CB        69.7320   42.0590   -2.9200 C.3    91  PRO91       0.0310
     82  CG        70.3320   40.6850   -2.9490 C.3    91  PRO91       0.0237
     83  CD        71.6130   40.7780   -3.6670 C.3    91  PRO91       0.0939
     84  N         70.6820   44.7980   -1.4140 N.am   92  GLU92      -0.1978
     85  CA        70.9740   45.4590   -0.1500 C.3    92  GLU92       0.1602
     86  C         69.9270   46.5440    0.1710 C.2    92  GLU92       0.2287
     87  O         69.5250   47.2920   -0.7200 O.2    92  GLU92      -0.2864
     88  CB        72.4200   45.9860   -0.1580 C.3    92  GLU92       0.0415
     89  CG        72.6150   47.4880   -0.1880 C.3    92  GLU92       0.1163
     90  CD        73.3770   47.9700    1.0290 C.2    92  GLU92       0.3649
     91  OE1       74.6190   48.1540    0.9040 O.co2  92  GLU92      -0.2457
     92  OE2       72.7370   48.1430    2.1060 O.co2  92  GLU92      -0.2457
     93  N         69.9980   43.4430    3.1470 N.3    94  VAL94      -0.1245
     94  CA        69.6420   42.0350    3.1650 C.3    94  VAL94       0.1561
     95  C         69.8470   41.3880    4.5340 C.2    94  VAL94       0.2260
     96  O         70.6340   41.8460    5.3430 O.2    94  VAL94      -0.2867
     97  CB        70.4970   41.2950    2.0860 C.3    94  VAL94       0.0252
     98  CG1       70.8100   39.8770    2.4670 C.3    94  VAL94       0.0019
     99  CG2       69.7890   41.2980    0.7500 C.3    94  VAL94       0.0019
    100  N         67.9970   34.5280    1.0880 N.3   142  LEU142     -0.1245
    101  CA        68.2700   35.9110    1.3960 C.3   142  LEU142      0.1561
    102  C         67.0110   36.7220    1.2070 C.2   142  LEU142      0.2260
    103  O         66.2800   36.5320    0.2450 O.2   142  LEU142     -0.2867
    104  CB        69.3200   36.4860    0.4520 C.3   142  LEU142      0.0270
    105  CG        70.7670   36.0480    0.5850 C.3   142  LEU142      0.0019
    106  CD1       71.6390   36.8580   -0.3920 C.3   142  LEU142      0.0001
    107  CD2       71.2490   36.1980    2.0090 C.3   142  LEU142      0.0001
    108  N         70.2260   30.9590   -2.4660 N.3   153  ILE153     -0.1231
    109  CA        71.6800   30.9570   -2.6170 C.3   153  ILE153      0.1692
    110  C         72.2970   29.6150   -2.2150 C.2   153  ILE153      0.2592
    111  O         71.6170   28.7390   -1.6630 O.2   153  ILE153     -0.2718
    112  CB        72.3200   32.0770   -1.7330 C.3   153  ILE153      0.0266
    113  CG1       71.9300   31.9040   -0.2600 C.3   153  ILE153      0.0019
    114  CG2       71.9210   33.4600   -2.2150 C.3   153  ILE153      0.0020
    115  CD1       72.7790   32.7010    0.7010 C.3   153  ILE153      0.0001
    116  N         73.6000   29.5020   -2.4830 N.am  154  ASP154     -0.1974
    117  CA        74.4620   28.3800   -2.1120 C.3   154  ASP154      0.1709
    118  C         74.0690   27.0480   -2.7620 C.2   154  ASP154      0.2293
    119  O         73.5510   26.1420   -2.1040 O.2   154  ASP154     -0.2864
    120  CB        74.6040   28.2520   -0.5790 C.3   154  ASP154      0.1436
    121  CG        75.5200   29.3280    0.0450 C.2   154  ASP154      0.3671
    122  OD1       76.2770   30.0200   -0.6820 O.co2 154  ASP154     -0.2456
    123  OD2       75.5480   29.5550    1.2770 O.co2 154  ASP154     -0.2456
@<TRIPOS>BOND
     1    64    63   ar
     2    65    63   ar
     3    63    62    1
     4    44    43    2
     5    43    42    1
     6    61    62    1
     7    61    58    1
     8    49    50    1
     9    50    51    1
    10    50    53    1
    11    57    51   am
    12    57    58    1
    13    51    52    2
    14    58    59    1
    15    56    54    1
    16    42    41    1
    17    42    45    1
    18    54    53    1
    19    54    55    1
    20    47    45    1
    21    59    66   am
    22    59    60    2
    23    45    46    1
    24    66    67    1
    25    30    29    2
    26    46    48    1
    27    35    34    2
    28    27    28    1
    29    29    28    1
    30    67    68    1
    31    67    70    1
    32    32    33    1
    33    69    68    2
    34    68    77   am
    35    83    77    1
    36    83    82    1
    37    34    33    1
    38    28    31    1
    39    70    71    1
    40    77    78    1
    41    36    33    1
    42    36    37    1
    43    38    37    1
    44    38    39    1
    45    78    81    1
    46    78    79    1
    47    82    81    1
    48   118   117    1
    49   118   119    2
    50   109   108    1
    51   109   110    1
    52   109   112    1
    53    76    74    1
    54   116   110   am
    55   116   117    1
    56    39    40    1
    57   114   112    1
    58   110   111    2
    59    73    74    2
    60    73    72    1
    61   117   120    1
    62    71    72    1
    63    74    75    1
    64    79    84   am
    65    79    80    2
    66   112   113    1
    67    84    85    1
    68    87    86    2
    69   122   121   ar
    70   120   121    1
    71   106   105    1
    72   113   115    1
    73    12    11    2
    74    89    88    1
    75    89    90    1
    76    25    24    1
    77    88    85    1
    78    85    86    1
    79   121   123   ar
    80   103   102    2
    81    26    24    1
    82   104   105    1
    83   104   101    1
    84   105   107    1
    85    21    24    1
    86    21    22    1
    87    21    20    1
    88    99    97    1
    89    11    10    1
    90    91    90   ar
    91    90    92   ar
    92    22    23    2
    93   100   101    1
    94   102   101    1
    95     7     6    1
    96    10    13    1
    97    10     9    1
    98    13    14    1
    99    97    98    1
   100    97    94    1
   101    15    14   ar
   102    15    17   ar
   103     6     8    1
   104     6     5    1
   105    14    16   ar
   106    93    94    1
   107    94    95    1
   108     5     2    1
   109    17    19   ar
   110    16    18   ar
   111     1     2    1
   112    95    96    2
   113     2     3    1
   114    19    18   ar
   115     3     4    2
