@<TRIPOS>MOLECULE
tmp/2o6hD00.pdb
 111 110 0 0 0
SMALL
GASTEIGER

@<TRIPOS>ATOM
      1  N          5.7140   30.2100   81.1440 N.3    10  ALA10      -0.1245
      2  CA         6.7820   29.8230   80.2390 C.3    10  ALA10       0.1562
      3  C          7.9930   29.6640   81.1550 C.2    10  ALA10       0.2260
      4  O          8.4330   30.6210   81.7780 O.2    10  ALA10      -0.2867
      5  CB         7.0310   30.9050   79.2110 C.3    10  ALA10       0.0290
      6  N         11.6090   29.1980   81.1200 N.3    12  PHE12      -0.1227
      7  CA        12.8820   29.2270   80.4130 C.3    12  PHE12       0.1736
      8  C         13.9470   29.5200   81.4620 C.2    12  PHE12       0.2595
      9  O         14.9940   28.8780   81.4880 O.2    12  PHE12      -0.2718
     10  CB        12.8610   30.3190   79.3550 C.3    12  PHE12       0.0547
     11  CG        13.9530   30.1990   78.3310 C.ar   12  PHE12      -0.0202
     12  CD1       13.8820   29.2360   77.3310 C.ar   12  PHE12      -0.0042
     13  CD2       15.0390   31.0810   78.3420 C.ar   12  PHE12      -0.0042
     14  CE1       14.8750   29.1550   76.3530 C.ar   12  PHE12      -0.0003
     15  CE2       16.0240   31.0080   77.3790 C.ar   12  PHE12      -0.0003
     16  CZ        15.9440   30.0420   76.3760 C.ar   12  PHE12      -0.0000
     17  N         13.6690   30.4940   82.3280 N.am   13  TYR13      -0.1976
     18  CA        14.5770   30.8500   83.4270 C.3    13  TYR13       0.1639
     19  C         13.8720   30.3720   84.6880 C.2    13  TYR13       0.2290
     20  O         13.1060   31.1220   85.2970 O.2    13  TYR13      -0.2864
     21  CB        14.7830   32.3660   83.5180 C.3    13  TYR13       0.0560
     22  CG        15.3420   32.9850   82.2650 C.ar   13  TYR13      -0.0198
     23  CD1       14.5210   33.2620   81.1750 C.ar   13  TYR13      -0.0009
     24  CD2       16.7030   33.2530   82.1470 C.ar   13  TYR13      -0.0009
     25  CE1       15.0430   33.7870   79.9990 C.ar   13  TYR13       0.0417
     26  CE2       17.2320   33.7730   80.9770 C.ar   13  TYR13       0.0417
     27  CZ        16.4000   34.0340   79.9080 C.ar   13  TYR13       0.1957
     28  OH        16.9270   34.5200   78.7410 O.3    13  TYR13      -0.2866
     29  N          7.7580   25.3440   77.6040 N.3    41  PRO41      -0.2102
     30  CA         9.1720   25.7150   77.4950 C.3    41  PRO41       0.1504
     31  C          9.5050   27.1960   77.3090 C.2    41  PRO41       0.2576
     32  O         10.3260   27.7500   78.0430 O.2    41  PRO41      -0.2718
     33  CB         9.6770   24.8420   76.3450 C.3    41  PRO41       0.0282
     34  CG         8.4610   24.5030   75.5800 C.3    41  PRO41       0.0208
     35  CD         7.4110   24.3000   76.6270 C.3    41  PRO41       0.0893
     36  N          8.8850   27.8450   76.3340 N.am   42  GLY42      -0.1943
     37  CA         9.1650   29.2500   76.1240 C.3    42  GLY42       0.2014
     38  C          7.9050   30.0620   75.9340 C.2    42  GLY42       0.2639
     39  O          6.8480   29.5220   75.6160 O.2    42  GLY42      -0.2714
     40  N          8.0280   31.3720   76.1210 N.am   43  ALA43      -0.1963
     41  CA         6.9070   32.2900   75.9810 C.3    43  ALA43       0.1728
     42  C          6.1900   32.1160   74.6490 C.2    43  ALA43       0.2616
     43  O          5.0020   32.4280   74.5400 O.2    43  ALA43      -0.2715
     44  CB         7.3940   33.7270   76.1210 C.3    43  ALA43       0.0334
     45  N          6.8980   31.6300   73.6340 N.am   44  LEU44      -0.1963
     46  CA         6.2650   31.4460   72.3360 C.3    44  LEU44       0.1728
     47  C          5.0970   30.4670   72.3560 C.2    44  LEU44       0.2616
     48  O          4.1680   30.6150   71.5640 O.2    44  LEU44      -0.2715
     49  CB         7.2660   30.9800   71.2800 C.3    44  LEU44       0.0311
     50  CG         8.2670   31.9570   70.6690 C.3    44  LEU44       0.0022
     51  CD1        8.8420   31.2930   69.4270 C.3    44  LEU44       0.0001
     52  CD2        7.6040   33.2760   70.2980 C.3    44  LEU44       0.0001
     53  N          5.1220   29.4560   73.2240 N.am   45  GLU45      -0.1977
     54  CA         3.9860   28.5360   73.2250 C.3    45  GLU45       0.1602
     55  C          2.8460   28.8950   74.1790 C.2    45  GLU45       0.2287
     56  O          1.9030   28.1210   74.3280 O.2    45  GLU45      -0.2864
     57  CB         4.4070   27.0610   73.4360 C.3    45  GLU45       0.0415
     58  CG         5.7360   26.7830   74.0930 C.3    45  GLU45       0.1163
     59  CD         6.9230   26.9840   73.1620 C.2    45  GLU45       0.3649
     60  OE1        6.8150   26.6810   71.9560 O.co2  45  GLU45      -0.2457
     61  OE2        7.9780   27.4330   73.6520 O.co2  45  GLU45      -0.2457
     62  N          9.2120   35.3610   80.7530 N.3    72  THR72      -0.1203
     63  CA        10.3260   36.3020   80.8470 C.3    72  THR72       0.1994
     64  C         11.2450   36.2180   79.6480 C.2    72  THR72       0.2618
     65  O         11.6760   35.1420   79.2630 O.2    72  THR72      -0.2717
     66  CB        11.1830   36.0470   82.0690 C.3    72  THR72       0.1784
     67  OG1       10.3630   36.0670   83.2360 O.3    72  THR72      -0.2211
     68  CG2       12.2480   37.1170   82.1850 C.3    72  THR72       0.0376
     69  N         11.5460   37.3640   79.0580 N.am   73  VAL73      -0.1965
     70  CA        12.4230   37.4060   77.9010 C.3    73  VAL73       0.1727
     71  C         13.5050   38.4260   78.1960 C.2    73  VAL73       0.2616
     72  O         13.2070   39.6050   78.3880 O.2    73  VAL73      -0.2715
     73  CB        11.6700   37.8480   76.6140 C.3    73  VAL73       0.0290
     74  CG1       12.5920   37.7140   75.4140 C.3    73  VAL73       0.0023
     75  CG2       10.4010   37.0220   76.4140 C.3    73  VAL73       0.0023
     76  N         14.7510   37.9660   78.2590 N.am   74  ILE74      -0.1977
     77  CA        15.8820   38.8500   78.5230 C.3    74  ILE74       0.1596
     78  C         16.6730   39.0310   77.2360 C.2    74  ILE74       0.2287
     79  O         17.0600   38.0580   76.5820 O.2    74  ILE74      -0.2864
     80  CB        16.8210   38.2770   79.6150 C.3    74  ILE74       0.0276
     81  CG1       16.0310   38.0310   80.9000 C.3    74  ILE74       0.0022
     82  CG2       17.9650   39.2570   79.8910 C.3    74  ILE74       0.0022
     83  CD1       16.8410   37.4300   82.0140 C.3    74  ILE74       0.0001
     84  N         16.6570   37.5130   68.3430 N.3    80  HIS80      -0.1226
     85  CA        15.6880   36.5240   68.8000 C.3    80  HIS80       0.1752
     86  C         14.8410   37.0800   69.9480 C.2    80  HIS80       0.2596
     87  O         13.6610   36.7450   70.0890 O.2    80  HIS80      -0.2718
     88  CB        16.4200   35.2580   69.2420 C.3    80  HIS80       0.0759
     89  CG        15.5240   34.0770   69.4380 C.ar   80  HIS80       0.0818
     90  ND1       15.2310   33.5630   70.6840 N.ar   80  HIS80      -0.2268
     91  CD2       14.8810   33.2890   68.5440 C.ar   80  HIS80       0.1154
     92  CE1       14.4500   32.5060   70.5470 C.ar   80  HIS80       0.1986
     93  NE2       14.2230   32.3180   69.2590 N.ar   80  HIS80      -0.2212
     94  N         15.4560   37.9360   70.7590 N.am   81  PHE81      -0.1976
     95  CA        14.7760   38.5650   71.8880 C.3    81  PHE81       0.1639
     96  C         13.5380   39.3030   71.4170 C.2    81  PHE81       0.2290
     97  O         12.4650   39.1710   72.0010 O.2    81  PHE81      -0.2864
     98  CB        15.6910   39.5820   72.5800 C.3    81  PHE81       0.0560
     99  CG        14.9430   40.5840   73.4160 C.ar   81  PHE81      -0.0200
    100  CD1       14.5940   40.2950   74.7310 C.ar   81  PHE81      -0.0042
    101  CD2       14.5230   41.7940   72.8630 C.ar   81  PHE81      -0.0042
    102  CE1       13.8380   41.1940   75.4820 C.ar   81  PHE81      -0.0003
    103  CE2       13.7630   42.6980   73.6080 C.ar   81  PHE81      -0.0003
    104  CZ        13.4200   42.3980   74.9170 C.ar   81  PHE81      -0.0000
    105  N         10.7460   36.6820   70.2270 N.3    84  VAL84      -0.1245
    106  CA        10.0240   36.0220   71.3100 C.3    84  VAL84       0.1561
    107  C          9.1180   37.0320   72.0150 C.2    84  VAL84       0.2260
    108  O          7.9530   36.7490   72.2650 O.2    84  VAL84      -0.2867
    109  CB        11.0040   35.3540   72.3180 C.3    84  VAL84       0.0252
    110  CG1       10.2690   34.9130   73.5880 C.3    84  VAL84       0.0019
    111  CG2       11.6410   34.1380   71.6570 C.3    84  VAL84       0.0019
@<TRIPOS>BOND
     1    84    85    1
     2    91    93   ar
     3    91    89   ar
     4    85    88    1
     5    85    86    1
     6    88    89    1
     7    93    92   ar
     8    51    50    1
     9    89    90   ar
    10    86    87    2
    11    86    94   am
    12   105   106    1
    13    52    50    1
    14    92    90   ar
    15    50    49    1
    16    94    95    1
    17    49    46    1
    18   106   107    1
    19   106   109    1
    20    96    95    1
    21    96    97    2
    22    48    47    2
    23   111   109    1
    24    95    98    1
    25    60    59   ar
    26   107   108    2
    27   109   110    1
    28    46    47    1
    29    46    45    1
    30    47    53   am
    31    98    99    1
    32   101    99   ar
    33   101   103   ar
    34    59    61   ar
    35    59    58    1
    36    53    54    1
    37    54    57    1
    38    54    55    1
    39    99   100   ar
    40    57    58    1
    41   103   104   ar
    42    45    42   am
    43    55    56    2
    44    43    42    2
    45    42    41    1
    46   100   102   ar
    47   104   102   ar
    48    74    73    1
    49    34    33    1
    50    34    35    1
    51    39    38    2
    52    38    40   am
    53    38    37    1
    54    41    40    1
    55    41    44    1
    56    37    36    1
    57    36    31   am
    58    33    30    1
    59    14    16   ar
    60    14    12   ar
    61    16    15   ar
    62    75    73    1
    63    79    78    2
    64    73    70    1
    65    35    29    1
    66    78    77    1
    67    31    30    1
    68    31    32    2
    69    12    11   ar
    70    15    13   ar
    71    30    29    1
    72    70    71    1
    73    70    69    1
    74    71    76   am
    75    71    72    2
    76    76    77    1
    77    11    13   ar
    78    11    10    1
    79    77    80    1
    80    28    27    1
    81    69    64   am
    82     5     2    1
    83    65    64    2
    84    10     7    1
    85    80    82    1
    86    80    81    1
    87    64    63    1
    88    27    25   ar
    89    27    26   ar
    90    25    23   ar
    91     2     1    1
    92     2     3    1
    93     7     6    1
    94     7     8    1
    95    62    63    1
    96    63    66    1
    97    81    83    1
    98    26    24   ar
    99     3     4    2
   100    23    22   ar
   101     8     9    2
   102     8    17   am
   103    66    68    1
   104    66    67    1
   105    24    22   ar
   106    22    21    1
   107    17    18    1
   108    18    21    1
   109    18    19    1
   110    19    20    2
