@<TRIPOS>MOLECULE
tmp/2o73A00.pdb
 123 120 0 0 0
SMALL
GASTEIGER

@<TRIPOS>ATOM
      1  N          0.3280   20.1230    8.1830 N.3    66  HIS66      -0.1227
      2  CA        -0.7660   20.7390    8.9370 C.3    66  HIS66       0.1737
      3  C         -0.2610   21.9140    9.7850 C.2    66  HIS66       0.2438
      4  O          0.8360   21.8600   10.3370 O.2    66  HIS66      -0.2733
      5  CB        -1.4540   19.7190    9.8420 C.3    66  HIS66       0.0758
      6  CG        -2.3220   18.7360    9.1150 C.ar   66  HIS66       0.0818
      7  ND1       -1.8110   17.6710    8.3980 N.ar   66  HIS66      -0.2268
      8  CD2       -3.6710   18.6500    9.0080 C.ar   66  HIS66       0.1154
      9  CE1       -2.8100   16.9750    7.8820 C.ar   66  HIS66       0.1986
     10  NE2       -3.9470   17.5430    8.2430 N.ar   66  HIS66      -0.2212
     11  N         -1.0590   22.9820    9.8800 N.am   67  PRO67      -0.2729
     12  CA        -0.6340   24.0700   10.7470 C.3    67  PRO67       0.1401
     13  C         -0.9170   23.7600   12.2050 C.2    67  PRO67       0.2269
     14  O         -1.7510   22.9150   12.5040 O.2    67  PRO67      -0.2865
     15  CB        -1.4880   25.2470   10.2790 C.3    67  PRO67       0.0296
     16  CG        -2.7470   24.6160    9.7440 C.3    67  PRO67       0.0237
     17  CD        -2.3410   23.2670    9.1970 C.3    67  PRO67       0.0939
     18  N         -2.5740   24.3040   15.7760 N.3    69  LEU69      -0.1245
     19  CA        -3.7160   24.9260   16.4250 C.3    69  LEU69       0.1561
     20  C         -3.2700   26.2200   17.1260 C.2    69  LEU69       0.2260
     21  O         -2.3640   26.1860   17.9510 O.2    69  LEU69      -0.2867
     22  CB        -4.3240   23.9580   17.4320 C.3    69  LEU69       0.0270
     23  CG        -5.0220   22.7280   16.8420 C.3    69  LEU69       0.0019
     24  CD1       -5.1880   21.6630   17.9000 C.3    69  LEU69       0.0001
     25  CD2       -6.3650   23.1200   16.2550 C.3    69  LEU69       0.0001
     26  N         -8.9140   25.1170    7.3030 N.3    83  SER83      -0.1217
     27  CA        -8.2310   25.2230    8.5940 C.3    83  SER83       0.1889
     28  C         -8.7320   26.4360    9.3950 C.2    83  SER83       0.2288
     29  O         -8.9610   26.3290   10.5930 O.2    83  SER83      -0.2866
     30  CB        -6.7100   25.2880    8.4050 C.3    83  SER83       0.2089
     31  OG        -6.1610   23.9940    8.1670 O.3    83  SER83      -0.2183
     32  N        -12.1520   25.7810   10.7220 N.3    86  GLU86      -0.1231
     33  CA       -12.0850   24.6350   11.6390 C.3    86  GLU86       0.1699
     34  C        -11.5200   25.0150   13.0040 C.2    86  GLU86       0.2592
     35  O        -11.9830   24.5160   14.0310 O.2    86  GLU86      -0.2718
     36  CB       -11.2440   23.5020   11.0300 C.3    86  GLU86       0.0402
     37  CG       -11.9800   22.6560    9.9780 C.3    86  GLU86       0.1161
     38  CD       -11.0370   21.9120    9.0230 C.2    86  GLU86       0.3649
     39  OE1       -9.8050   21.8580    9.2690 O.co2  86  GLU86      -0.2457
     40  OE2      -11.5410   21.3730    8.0150 O.co2  86  GLU86      -0.2457
     41  N        -10.5120   25.8900   12.9990 N.am   87  GLN87      -0.1979
     42  CA        -9.9350   26.4260   14.2340 C.3    87  GLN87       0.1601
     43  C        -10.8750   27.4380   14.8930 C.2    87  GLN87       0.2287
     44  O        -10.9380   27.5090   16.1210 O.2    87  GLN87      -0.2864
     45  CB        -8.5480   27.0500   13.9900 C.3    87  GLN87       0.0394
     46  CG        -7.5070   26.0580   13.4420 C.3    87  GLN87       0.0908
     47  CD        -6.0770   26.3540   13.9000 C.2    87  GLN87       0.2608
     48  OE1       -5.8610   26.9530   14.9620 O.2    87  GLN87      -0.2717
     49  NE2       -5.0900   25.8950   13.1080 N.am   87  GLN87      -0.0878
     50  N          3.5740   17.9720   13.9130 N.3   117  PRO117     -0.2102
     51  CA         2.6050   18.7400   14.6970 C.3   117  PRO117      0.1504
     52  C          1.5900   17.8610   15.3850 C.2   117  PRO117      0.2576
     53  O          1.3320   16.7240   14.9580 O.2   117  PRO117     -0.2718
     54  CB         1.9080   19.6200   13.6580 C.3   117  PRO117      0.0282
     55  CG         2.8050   19.5610   12.4070 C.3   117  PRO117      0.0208
     56  CD         3.4320   18.2020   12.4660 C.3   117  PRO117      0.0893
     57  N          1.0420   18.3830   16.4770 N.am  118  PHE118     -0.1963
     58  CA        -0.1620   17.8180   17.0740 C.3   118  PHE118      0.1771
     59  C         -1.3430   18.0450   16.1370 C.2   118  PHE118      0.2619
     60  O         -1.6400   19.1770   15.7510 O.2   118  PHE118     -0.2715
     61  CB        -0.4650   18.5060   18.4020 C.3   118  PHE118      0.0574
     62  CG        -1.7830   18.0960   18.9940 C.ar  118  PHE118     -0.0200
     63  CD1       -1.9060   16.8850   19.6560 C.ar  118  PHE118     -0.0042
     64  CD2       -2.8950   18.9200   18.8820 C.ar  118  PHE118     -0.0042
     65  CE1       -3.1380   16.4990   20.2180 C.ar  118  PHE118     -0.0003
     66  CE2       -4.1180   18.5420   19.4300 C.ar  118  PHE118     -0.0003
     67  CZ        -4.2350   17.3330   20.1000 C.ar  118  PHE118     -0.0000
     68  N         -2.0010   16.9600   15.7480 N.am  119  VAL119     -0.1963
     69  CA        -3.1340   17.0770   14.8410 C.3   119  VAL119      0.1727
     70  C         -4.3770   16.4760   15.4880 C.2   119  VAL119      0.2616
     71  O         -4.3590   15.3480   15.9630 O.2   119  VAL119     -0.2715
     72  CB        -2.8680   16.4200   13.4530 C.3   119  VAL119      0.0290
     73  CG1       -4.1480   16.4390   12.6060 C.3   119  VAL119      0.0023
     74  CG2       -1.7290   17.1650   12.7210 C.3   119  VAL119      0.0023
     75  N         -5.4540   17.2460   15.5060 N.am  120  ILE120     -0.1963
     76  CA        -6.7290   16.7360   16.0140 C.3   120  ILE120      0.1727
     77  C         -7.8480   17.2020   15.0940 C.2   120  ILE120      0.2616
     78  O         -7.7370   18.2480   14.4420 O.2   120  ILE120     -0.2715
     79  CB        -6.9860   17.2050   17.4640 C.3   120  ILE120      0.0290
     80  CG1       -8.0970   16.3700   18.1140 C.3   120  ILE120      0.0022
     81  CG2       -7.3360   18.6830   17.4940 C.3   120  ILE120      0.0023
     82  CD1       -8.2240   16.5920   19.6060 C.3   120  ILE120      0.0001
     83  N         -8.9300   16.4300   15.0220 N.am  121  CYS121     -0.1954
     84  CA       -10.0930   16.8930   14.2650 C.3   121  CYS121      0.1843
     85  C        -10.7470   18.0810   14.9900 C.2   121  CYS121      0.2625
     86  O        -11.4960   17.8920   15.9460 O.2   121  CYS121     -0.2714
     87  CB       -11.0860   15.7450   14.0530 C.3   121  CYS121      0.0997
     88  SG       -12.4240   16.1440   12.9150 S.3   121  CYS121     -0.0797
     89  N        -10.4710   19.2980   14.5420 N.am  122  ALA122     -0.1963
     90  CA       -10.9110   20.5070   15.2640 C.3   122  ALA122      0.1728
     91  C        -12.4320   20.7200   15.2760 C.2   122  ALA122      0.2616
     92  O        -12.9780   21.3160   16.2110 O.2   122  ALA122     -0.2715
     93  CB       -10.2110   21.7550   14.7120 C.3   122  ALA122      0.0334
     94  N        -13.1170   20.2350   14.2480 N.am  123  ARG123     -0.1977
     95  CA       -14.5690   20.4080   14.1740 C.3   123  ARG123      0.1597
     96  C        -15.3450   19.4920   15.1280 C.2   123  ARG123      0.2287
     97  O        -16.5700   19.6270   15.2840 O.2   123  ARG123     -0.2864
     98  CB       -15.0570   20.2430   12.7390 C.3   123  ARG123      0.0334
     99  CG       -14.9300   21.5150   11.9360 C.3   123  ARG123      0.0492
    100  CD       -16.1260   21.6700   11.0130 C.3   123  ARG123      0.2205
    101  NE       -15.8890   21.0860    9.7010 N.pl3 123  ARG123     -0.0865
    102  CZ       -16.8430   20.6290    8.8930 C.cat 123  ARG123      0.5346
    103  NH1      -18.1150   20.6430    9.2710 N.pl3 123  ARG123      0.1354
    104  NH2      -16.5150   20.1390    7.7060 N.pl3 123  ARG123      0.1354
    105  N        -10.6510   14.5090    9.7270 N.3   156  ILE156     -0.1245
    106  CA       -10.7160   15.8510    9.1610 C.3   156  ILE156      0.1561
    107  C        -11.1430   15.7830    7.6920 C.2   156  ILE156      0.2260
    108  O        -12.0140   16.5370    7.2450 O.2   156  ILE156     -0.2867
    109  CB        -9.3410   16.5690    9.2950 C.3   156  ILE156      0.0252
    110  CG1       -8.9760   16.7420   10.7790 C.3   156  ILE156      0.0019
    111  CG2       -9.3610   17.8930    8.5810 C.3   156  ILE156      0.0019
    112  CD1       -7.5490   17.2420   11.0250 C.3   156  ILE156      0.0001
    113  N        -14.3230   17.4750    5.7950 N.3   160  ARG160     -0.1245
    114  CA       -14.0780   18.3420    4.6340 C.3   160  ARG160      0.1563
    115  C        -14.8500   17.8610    3.4070 C.2   160  ARG160      0.2260
    116  O        -15.4430   18.6600    2.6780 O.2   160  ARG160     -0.2867
    117  CB       -12.5730   18.4320    4.3120 C.3   160  ARG160      0.0307
    118  CG       -11.8060   19.2640    5.3420 C.3   160  ARG160      0.0489
    119  CD       -10.3850   19.6030    4.9400 C.3   160  ARG160      0.2205
    120  NE        -9.7920   20.4320    5.9890 N.pl3 160  ARG160     -0.0865
    121  CZ        -8.5640   20.9380    5.9730 C.cat 160  ARG160      0.5346
    122  NH1       -7.7580   20.7200    4.9360 N.pl3 160  ARG160      0.1354
    123  NH2       -8.1490   21.6690    7.0080 N.pl3 160  ARG160      0.1354
@<TRIPOS>BOND
     1   116   115    2
     2   115   114    1
     3   117   114    1
     4   117   118    1
     5   114   113    1
     6   122   121    1
     7   119   118    1
     8   119   120    1
     9   121   120    2
    10   121   123    1
    11   108   107    2
    12    26    27    1
    13   107   106    1
    14   104   102    1
    15     9    10   ar
    16     9     7   ar
    17    40    38   ar
    18    31    30    1
    19     1     2    1
    20    10     8   ar
    21     7     6   ar
    22    30    27    1
    23   111   109    1
    24    27    28    1
    25   102   103    1
    26   102   101    2
    27     2     3    1
    28     2     5    1
    29     8     6   ar
    30    38    39   ar
    31    38    37    1
    32     6     5    1
    33   106   109    1
    34   106   105    1
    35    17    16    1
    36    17    11    1
    37   109   110    1
    38    28    29    2
    39   101   100    1
    40    16    15    1
    41     3    11   am
    42     3     4    2
    43    11    12    1
    44    37    36    1
    45    15    12    1
    46    32    33    1
    47    12    13    1
    48   110   112    1
    49   100    99    1
    50    36    33    1
    51    33    34    1
    52    99    98    1
    53    13    14    2
    54    55    56    1
    55    55    54    1
    56    56    50    1
    57    73    72    1
    58    74    72    1
    59    98    95    1
    60    88    87    1
    61    41    34   am
    62    41    42    1
    63    34    35    2
    64    49    47   am
    65    46    47    1
    66    46    45    1
    67    72    69    1
    68    54    51    1
    69    47    48    2
    70    50    51    1
    71    45    42    1
    72    87    84    1
    73    95    94    1
    74    95    96    1
    75    42    43    1
    76    94    91   am
    77    84    85    1
    78    84    83    1
    79    78    77    2
    80    89    85   am
    81    89    90    1
    82    51    52    1
    83    93    90    1
    84    69    70    1
    85    69    68    1
    86    43    44    2
    87    53    52    2
    88    85    86    2
    89    83    77   am
    90    77    76    1
    91    96    97    2
    92    90    91    1
    93    91    92    2
    94    52    57   am
    95    70    75   am
    96    70    71    2
    97    75    76    1
    98    68    59   am
    99    60    59    2
   100    18    19    1
   101    76    79    1
   102    59    58    1
   103    25    23    1
   104    19    20    1
   105    19    22    1
   106    57    58    1
   107    23    22    1
   108    23    24    1
   109    58    61    1
   110    20    21    2
   111    79    81    1
   112    79    80    1
   113    80    82    1
   114    61    62    1
   115    64    62   ar
   116    64    66   ar
   117    62    63   ar
   118    66    67   ar
   119    63    65   ar
   120    67    65   ar
