@<TRIPOS>MOLECULE
tmp/2o74F00.pdb
 114 111 0 0 0
SMALL
GASTEIGER

@<TRIPOS>ATOM
      1  N         53.9790   49.3040    4.3110 N.3    67  HIS67      -0.1227
      2  CA        52.9980   50.1210    5.0480 C.3    67  HIS67       0.1737
      3  C         53.6720   51.2120    5.8970 C.2    67  HIS67       0.2438
      4  O         54.7020   50.9750    6.5100 O.2    67  HIS67      -0.2733
      5  CB        52.1260   49.2590    5.9780 C.3    67  HIS67       0.0758
      6  CG        51.1170   48.4100    5.2680 C.ar   67  HIS67       0.0818
      7  ND1       51.4680   47.3110    4.5270 N.ar   67  HIS67      -0.2268
      8  CD2       49.7650   48.4850    5.2170 C.ar   67  HIS67       0.1154
      9  CE1       50.3760   46.7520    4.0260 C.ar   67  HIS67       0.1986
     10  NE2       49.3270   47.4420    4.4380 N.ar   67  HIS67      -0.2212
     11  N         53.0840   52.4160    5.9240 N.am   68  PRO68      -0.2718
     12  CA        53.6690   53.4870    6.7460 C.3    68  PRO68       0.1535
     13  C         53.2830   53.3710    8.2110 C.2    68  PRO68       0.2599
     14  O         52.1820   52.9320    8.5310 O.2    68  PRO68      -0.2715
     15  CB        53.0200   54.7440    6.1820 C.3    68  PRO68       0.0310
     16  CG        51.6400   54.2670    5.6790 C.3    68  PRO68       0.0237
     17  CD        51.8740   52.8470    5.1930 C.3    68  PRO68       0.0939
     18  N         54.1480   53.8280    9.1010 N.am   69  ASP69      -0.1958
     19  CA        53.7990   53.8360   10.5160 C.3    69  ASP69       0.1840
     20  C         52.5600   54.6860   10.7750 C.2    69  ASP69       0.2621
     21  O         52.3770   55.7410   10.1810 O.2    69  ASP69      -0.2715
     22  CB        54.9460   54.4350   11.3260 C.3    69  ASP69       0.1450
     23  CG        56.0270   53.4270   11.6550 C.2    69  ASP69       0.3671
     24  OD1       55.9600   52.2700   11.1840 O.co2  69  ASP69      -0.2456
     25  OD2       56.9440   53.7980   12.4100 O.co2  69  ASP69      -0.2456
     26  N         51.7090   54.2260   11.6780 N.am   70  LEU70      -0.1977
     27  CA        50.6330   55.0830   12.1790 C.3    70  LEU70       0.1596
     28  C         51.2680   56.2930   12.8780 C.2    70  LEU70       0.2287
     29  O         52.1250   56.1170   13.7400 O.2    70  LEU70      -0.2864
     30  CB        49.7800   54.3050   13.1890 C.3    70  LEU70       0.0297
     31  CG        48.9510   53.1440   12.6380 C.3    70  LEU70       0.0022
     32  CD1       48.2790   52.3980   13.7910 C.3    70  LEU70       0.0001
     33  CD2       47.9180   53.6560   11.6570 C.3    70  LEU70       0.0001
     34  N         45.8240   55.6930    2.9030 N.3    84  SER84      -0.1217
     35  CA        46.4640   55.7350    4.2250 C.3    84  SER84       0.1889
     36  C         46.1110   57.0160    4.9720 C.2    84  SER84       0.2288
     37  O         45.8530   56.9960    6.1750 O.2    84  SER84      -0.2866
     38  CB        47.9810   55.5630    4.1100 C.3    84  SER84       0.2089
     39  OG        48.2950   54.1980    3.8460 O.3    84  SER84      -0.2183
     40  N         42.5130   56.7370    6.2440 N.3    87  GLU87      -0.1231
     41  CA        42.5230   55.7170    7.2970 C.3    87  GLU87       0.1699
     42  C         43.0820   56.2550    8.6130 C.2    87  GLU87       0.2592
     43  O         42.4530   56.1460    9.6720 O.2    87  GLU87      -0.2718
     44  CB        43.3270   54.4870    6.8430 C.3    87  GLU87       0.0402
     45  CG        42.5760   53.6190    5.8100 C.3    87  GLU87       0.1161
     46  CD        43.4990   52.7960    4.9110 C.2    87  GLU87       0.3649
     47  OE1       44.7250   52.8480    5.0890 O.co2  87  GLU87      -0.2457
     48  OE2       42.9740   52.1110    4.0070 O.co2  87  GLU87      -0.2457
     49  N         44.2700   56.8380    8.5410 N.am   88  GLN88      -0.1979
     50  CA        44.9200   57.3760    9.7250 C.3    88  GLN88       0.1601
     51  C         44.1560   58.5720   10.3300 C.2    88  GLN88       0.2287
     52  O         44.1510   58.7560   11.5410 O.2    88  GLN88      -0.2864
     53  CB        46.3680   57.7330    9.4010 C.3    88  GLN88       0.0394
     54  CG        47.2180   56.4920    9.0630 C.3    88  GLN88       0.0908
     55  CD        48.6970   56.6710    9.3970 C.2    88  GLN88       0.2608
     56  OE1       49.0520   57.4210   10.3100 O.2    88  GLN88      -0.2717
     57  NE2       49.5610   55.9730    8.6620 N.am   88  GLN88      -0.0878
     58  N         56.6780   46.9700   10.2360 N.3   118  PRO118     -0.2102
     59  CA        55.8270   47.9810   10.9130 C.3   118  PRO118      0.1504
     60  C         54.6030   47.3610   11.5730 C.2   118  PRO118      0.2576
     61  O         54.1340   46.2910   11.1540 O.2   118  PRO118     -0.2718
     62  CB        55.3630   48.9050    9.7710 C.3   118  PRO118      0.0282
     63  CG        56.2370   48.5680    8.5760 C.3   118  PRO118      0.0208
     64  CD        56.6560   47.1200    8.7750 C.3   118  PRO118      0.0893
     65  N         54.1170   48.0240   12.6160 N.am  119  PHE119     -0.1963
     66  CA        52.8350   47.6860   13.2180 C.3   119  PHE119      0.1771
     67  C         51.7040   48.0690   12.2910 C.2   119  PHE119      0.2619
     68  O         51.5450   49.2460   11.9330 O.2   119  PHE119     -0.2715
     69  CB        52.6610   48.4430   14.5210 C.3   119  PHE119      0.0574
     70  CG        51.3050   48.2570   15.1340 C.ar  119  PHE119     -0.0200
     71  CD1       51.0050   47.1030   15.8420 C.ar  119  PHE119     -0.0042
     72  CD2       50.3410   49.2380   15.0040 C.ar  119  PHE119     -0.0042
     73  CE1       49.7420   46.9260   16.4050 C.ar  119  PHE119     -0.0003
     74  CE2       49.0830   49.0850   15.5800 C.ar  119  PHE119     -0.0003
     75  CZ        48.7850   47.9180   16.2870 C.ar  119  PHE119     -0.0000
     76  N         50.9130   47.0690   11.9010 N.am  120  VAL120     -0.1963
     77  CA        49.8040   47.2660   10.9790 C.3   120  VAL120      0.1727
     78  C         48.5130   46.7720   11.6490 C.2   120  VAL120      0.2616
     79  O         48.4540   45.6710   12.2000 O.2   120  VAL120     -0.2715
     80  CB        50.0410   46.5070    9.6370 C.3   120  VAL120      0.0290
     81  CG1       48.8190   46.6380    8.7200 C.3   120  VAL120      0.0023
     82  CG2       51.2700   47.0440    8.9400 C.3   120  VAL120      0.0023
     83  N         47.4950   47.6120   11.6050 N.am  121  ILE121     -0.1977
     84  CA        46.1850   47.2660   12.1460 C.3   121  ILE121      0.1596
     85  C         45.1550   47.9620   11.2640 C.2   121  ILE121      0.2287
     86  O         45.4580   48.9750   10.6230 O.2   121  ILE121     -0.2864
     87  CB        46.0510   47.7230   13.6200 C.3   121  ILE121      0.0276
     88  CG1       44.8280   47.0590   14.2860 C.3   121  ILE121      0.0022
     89  CG2       46.0520   49.2560   13.6920 C.3   121  ILE121      0.0022
     90  CD1       44.6060   47.4340   15.7430 C.3   121  ILE121      0.0001
     91  N         42.9540   50.4740   10.5240 N.3   123  ALA123     -0.1245
     92  CA        42.7850   51.7660   11.2110 C.3   123  ALA123      0.1562
     93  C         41.3260   52.2080   11.2360 C.2   123  ALA123      0.2260
     94  O         40.8860   52.8400   12.1890 O.2   123  ALA123     -0.2867
     95  CB        43.6410   52.8490   10.5620 C.3   123  ALA123      0.0290
     96  N         42.2650   45.8320    5.9070 N.3   157  ILE157     -0.1245
     97  CA        42.5080   47.1150    5.2590 C.3   157  ILE157      0.1561
     98  C         42.1040   47.0270    3.7960 C.2   157  ILE157      0.2260
     99  O         41.4130   47.9000    3.2870 O.2   157  ILE157     -0.2867
    100  CB        44.0020   47.5410    5.3660 C.3   157  ILE157      0.0252
    101  CG1       44.3860   47.8300    6.8210 C.3   157  ILE157      0.0019
    102  CG2       44.2840   48.7850    4.5290 C.3   157  ILE157      0.0019
    103  CD1       45.8850   47.9050    7.0450 C.3   157  ILE157      0.0001
    104  N         39.4120   49.1540    1.6660 N.3   161  ARG161     -0.1245
    105  CA        39.8270   49.9000    0.4940 C.3   161  ARG161      0.1563
    106  C         38.9900   49.4930   -0.7360 C.2   161  ARG161      0.2260
    107  O         38.5850   50.3440   -1.5270 O.2   161  ARG161     -0.2867
    108  CB        41.3310   49.7110    0.2280 C.3   161  ARG161      0.0307
    109  CG        42.1880   50.5080    1.2280 C.3   161  ARG161      0.0489
    110  CD        43.7090   50.3700    0.9170 C.3   161  ARG161      0.2205
    111  NE        44.4750   51.0680    1.9480 N.pl3 161  ARG161     -0.0865
    112  CZ        45.7290   51.4900    1.8180 C.cat 161  ARG161      0.5346
    113  NH1       46.4010   51.3000    0.6890 N.pl3 161  ARG161      0.1354
    114  NH2       46.3010   52.1450    2.8250 N.pl3 161  ARG161      0.1354
@<TRIPOS>BOND
     1   107   106    2
     2   106   105    1
     3   108   105    1
     4   108   109    1
     5   105   104    1
     6   113   112    1
     7   110   109    1
     8   110   111    1
     9   112   111    2
    10   112   114    1
    11    34    35    1
    12    99    98    2
    13    98    97    1
    14    39    38    1
    15    48    46   ar
    16     9    10   ar
    17     9     7   ar
    18    38    35    1
    19    35    36    1
    20     1     2    1
    21    10     8   ar
    22     7     6   ar
    23   102   100    1
    24    46    47   ar
    25    46    45    1
    26    36    37    2
    27     2     3    1
    28     2     5    1
    29    17    16    1
    30    17    11    1
    31     8     6   ar
    32    97   100    1
    33    97    96    1
    34     6     5    1
    35   100   101    1
    36    16    15    1
    37    45    44    1
    38     3    11   am
    39     3     4    2
    40    11    12    1
    41    15    12    1
    42    40    41    1
    43    12    13    1
    44   101   103    1
    45    44    41    1
    46    41    42    1
    47    13    14    2
    48    13    18   am
    49    49    42   am
    50    49    50    1
    51    63    64    1
    52    63    62    1
    53    42    43    2
    54    57    55   am
    55    81    80    1
    56    64    58    1
    57    82    80    1
    58    54    55    1
    59    54    53    1
    60    18    19    1
    61    55    56    2
    62    53    50    1
    63    80    77    1
    64    50    51    1
    65    62    59    1
    66    21    20    2
    67    58    59    1
    68    51    52    2
    69    19    20    1
    70    19    22    1
    71    91    92    1
    72    95    92    1
    73    86    85    2
    74    20    26   am
    75    59    60    1
    76    77    78    1
    77    77    76    1
    78    61    60    2
    79    24    23   ar
    80    92    93    1
    81    93    94    2
    82    85    84    1
    83    22    23    1
    84    60    65   am
    85    83    78   am
    86    83    84    1
    87    78    79    2
    88    23    25   ar
    89    33    31    1
    90    26    27    1
    91    76    67   am
    92    68    67    2
    93    84    87    1
    94    27    28    1
    95    27    30    1
    96    67    66    1
    97    65    66    1
    98    31    30    1
    99    31    32    1
   100    28    29    2
   101    66    69    1
   102    87    89    1
   103    87    88    1
   104    88    90    1
   105    69    70    1
   106    72    70   ar
   107    72    74   ar
   108    70    71   ar
   109    74    75   ar
   110    71    73   ar
   111    75    73   ar
