@<TRIPOS>MOLECULE
tmp/2o7eA00.pdb
 126 118 0 0 0
SMALL
GASTEIGER

@<TRIPOS>ATOM
      1  N         17.6320   14.3970   46.5120 N.3    54  TYR54      -0.1241
      2  CA        18.4890   14.7110   45.3710 C.3    54  TYR54       0.1605
      3  C         18.2320   16.1090   44.8100 C.2    54  TYR54       0.2264
      4  O         17.0870   16.4820   44.5700 O.2    54  TYR54      -0.2867
      5  CB        18.2540   13.6880   44.2540 C.3    54  TYR54       0.0534
      6  CG        19.1480   13.8560   43.0470 C.ar   54  TYR54      -0.0201
      7  CD1       20.4810   13.4440   43.0790 C.ar   54  TYR54      -0.0009
      8  CD2       18.6540   14.4030   41.8630 C.ar   54  TYR54      -0.0009
      9  CE1       21.2920   13.5700   41.9600 C.ar   54  TYR54       0.0417
     10  CE2       19.4560   14.5340   40.7460 C.ar   54  TYR54       0.0417
     11  CZ        20.7670   14.1150   40.7970 C.ar   54  TYR54       0.1957
     12  OH        21.5250   14.2260   39.6650 O.3    54  TYR54      -0.2866
     13  N         24.8830   16.4920   42.0440 N.3    60  PHE60      -0.1227
     14  CA        24.2050   15.7800   40.9630 C.3    60  PHE60       0.1736
     15  C         24.9740   14.5680   40.4390 C.2    60  PHE60       0.2596
     16  O         26.1940   14.4850   40.5750 O.2    60  PHE60      -0.2718
     17  CB        23.9200   16.7580   39.8170 C.3    60  PHE60       0.0547
     18  CG        23.0460   17.9130   40.2220 C.ar   60  PHE60      -0.0202
     19  CD1       21.6860   17.7230   40.4480 C.ar   60  PHE60      -0.0042
     20  CD2       23.5910   19.1740   40.4410 C.ar   60  PHE60      -0.0042
     21  CE1       20.8800   18.7710   40.8870 C.ar   60  PHE60      -0.0003
     22  CE2       22.7910   20.2300   40.8810 C.ar   60  PHE60      -0.0003
     23  CZ        21.4360   20.0240   41.1060 C.ar   60  PHE60      -0.0000
     24  N         24.2440   13.6270   39.8470 N.am   61  GLY61      -0.1957
     25  CA        24.8640   12.4350   39.2940 C.3    61  GLY61       0.1869
     26  C         25.7120   11.6760   40.2930 C.2    61  GLY61       0.2309
     27  O         25.2640   11.4400   41.4170 O.2    61  GLY61      -0.2863
     28  N         23.6680   23.9920   38.1300 N.3    80  LEU80      -0.1245
     29  CA        23.0580   22.8520   37.4790 C.3    80  LEU80       0.1561
     30  C         22.6400   23.2630   36.0540 C.2    80  LEU80       0.2260
     31  O         22.9620   22.5560   35.0540 O.2    80  LEU80      -0.2867
     32  CB        21.8070   22.4000   38.1930 C.3    80  LEU80       0.0270
     33  CG        20.8850   21.3890   37.4960 C.3    80  LEU80       0.0019
     34  CD1       21.6370   20.0670   37.2560 C.3    80  LEU80       0.0001
     35  CD2       19.6300   21.1270   38.3240 C.3    80  LEU80       0.0001
     36  N         26.1070   24.0270   33.9740 N.3    83  PHE83      -0.1227
     37  CA        26.9110   22.9240   33.4460 C.3    83  PHE83       0.1736
     38  C         26.1920   21.9920   32.4730 C.2    83  PHE83       0.2595
     39  O         26.8470   21.2590   31.7340 O.2    83  PHE83      -0.2718
     40  CB        27.5720   22.1280   34.5920 C.3    83  PHE83       0.0547
     41  CG        26.6940   21.0610   35.2160 C.ar   83  PHE83      -0.0202
     42  CD1       26.4700   19.8460   34.5650 C.ar   83  PHE83      -0.0042
     43  CD2       26.1080   21.2690   36.4630 C.ar   83  PHE83      -0.0042
     44  CE1       25.6840   18.8610   35.1460 C.ar   83  PHE83      -0.0003
     45  CE2       25.3180   20.2870   37.0580 C.ar   83  PHE83      -0.0003
     46  CZ        25.1020   19.0840   36.3990 C.ar   83  PHE83      -0.0000
     47  N         24.8600   22.0280   32.4650 N.am   84  LEU84      -0.1980
     48  CA        24.0820   21.1880   31.5570 C.3    84  LEU84       0.1596
     49  C         23.9200   21.8080   30.1780 C.2    84  LEU84       0.2287
     50  O         23.5680   21.1170   29.2210 O.2    84  LEU84      -0.2864
     51  CB        22.7030   20.9010   32.1670 C.3    84  LEU84       0.0297
     52  CG        22.6280   19.9090   33.3310 C.3    84  LEU84       0.0022
     53  CD1       21.1810   19.8070   33.8040 C.3    84  LEU84       0.0001
     54  CD2       23.1220   18.5500   32.8640 C.3    84  LEU84       0.0001
     55  N         18.0650   16.4520   29.7290 N.3   144  LEU144     -0.1245
     56  CA        18.6590   17.5480   30.4750 C.3   144  LEU144      0.1561
     57  C         19.2080   18.7170   29.6530 C.2   144  LEU144      0.2260
     58  O         18.9090   19.8770   29.9620 O.2   144  LEU144     -0.2867
     59  CB        19.7930   17.0260   31.3610 C.3   144  LEU144      0.0270
     60  CG        19.5630   15.8680   32.3290 C.3   144  LEU144      0.0019
     61  CD1       20.9050   15.3560   32.8530 C.3   144  LEU144      0.0001
     62  CD2       18.6930   16.3250   33.4760 C.3   144  LEU144      0.0001
     63  N         15.7670   21.7380   38.6630 N.3   190  LEU190     -0.1245
     64  CA        15.7800   20.3060   38.3670 C.3   190  LEU190      0.1561
     65  C         14.4440   19.8300   37.7860 C.2   190  LEU190      0.2260
     66  O         14.4170   18.9420   36.9370 O.2   190  LEU190     -0.2867
     67  CB        16.1470   19.4930   39.6250 C.3   190  LEU190      0.0270
     68  CG        16.3610   17.9840   39.4290 C.3   190  LEU190      0.0019
     69  CD1       17.3750   17.7260   38.3120 C.3   190  LEU190      0.0001
     70  CD2       16.8390   17.3650   40.7320 C.3   190  LEU190      0.0001
     71  N         14.8090   17.5330   34.5100 N.3   194  ASN194     -0.1240
     72  CA        14.8960   16.0710   34.6200 C.3   194  ASN194      0.1653
     73  C         13.7330   15.2330   34.0770 C.2   194  ASN194      0.2266
     74  O         13.1380   14.4500   34.8140 O.2   194  ASN194     -0.2867
     75  CB        15.1630   15.7220   36.0940 C.3   194  ASN194      0.1155
     76  CG        15.9510   14.4290   36.2830 C.2   194  ASN194      0.2627
     77  OD1       16.5870   13.9230   35.3680 O.2   194  ASN194     -0.2716
     78  ND2       15.9170   13.9010   37.5030 N.am  194  ASN194     -0.0877
     79  N         12.6030   13.3440   38.4680 N.3   324  ASN324     -0.1240
     80  CA        13.2680   12.7170   39.5790 C.3   324  ASN324      0.1653
     81  C         14.0150   13.7820   40.3590 C.2   324  ASN324      0.2266
     82  O         14.7450   14.5850   39.8100 O.2   324  ASN324     -0.2867
     83  CB        14.2710   11.6480   39.1090 C.3   324  ASN324      0.1155
     84  CG        14.8340   10.8470   40.2560 C.2   324  ASN324      0.2627
     85  OD1       14.0870   10.2360   41.0160 O.2   324  ASN324     -0.2716
     86  ND2       16.1510   10.8780   40.4150 N.am  324  ASN324     -0.0877
     87  N         13.8890    7.5980   41.7890 N.3   338  GLY338     -0.1225
     88  CA        13.8640    6.5200   40.8140 C.3   338  GLY338      0.1811
     89  C         14.3560    6.9330   39.4370 C.2   338  GLY338      0.2280
     90  O         15.2130    7.8080   39.3240 O.2   338  GLY338     -0.2866
     91  N         12.7750    9.3690   34.3050 N.3   341  PHE341     -0.1241
     92  CA        13.3080   10.2540   33.2750 C.3   341  PHE341      0.1605
     93  C         13.8890    9.4170   32.1380 C.2   341  PHE341      0.2264
     94  O         14.2800    9.9550   31.1070 O.2   341  PHE341     -0.2867
     95  CB        14.4180   11.1150   33.8770 C.3   341  PHE341      0.0534
     96  CG        15.4290   10.3170   34.6510 C.ar  341  PHE341     -0.0203
     97  CD1       16.2610    9.4090   34.0020 C.ar  341  PHE341     -0.0042
     98  CD2       15.5120   10.4270   36.0360 C.ar  341  PHE341     -0.0042
     99  CE1       17.1550    8.6190   34.7200 C.ar  341  PHE341     -0.0003
    100  CE2       16.4010    9.6400   36.7630 C.ar  341  PHE341     -0.0003
    101  CZ        17.2250    8.7330   36.1010 C.ar  341  PHE341     -0.0000
    102  N         28.6820    9.3220   32.1830 N.3   423  ASN423     -0.1240
    103  CA        28.5320    9.9870   33.4850 C.3   423  ASN423      0.1653
    104  C         29.2730    9.1700   34.5530 C.2   423  ASN423      0.2266
    105  O         28.7160    8.8460   35.5970 O.2   423  ASN423     -0.2867
    106  CB        27.0420   10.0950   33.8360 C.3   423  ASN423      0.1155
    107  CG        26.7560   11.0820   34.9710 C.2   423  ASN423      0.2627
    108  OD1       25.7910   10.9040   35.7160 O.2   423  ASN423     -0.2716
    109  ND2       27.5690   12.1310   35.0890 N.am  423  ASN423     -0.0877
    110  N         27.6950    6.1340   35.9660 N.3   426  ASN426     -0.1225
    111  CA        26.4750    6.2950   36.7410 C.3   426  ASN426      0.1785
    112  C         25.2910    6.0620   35.7950 C.2   426  ASN426      0.2597
    113  O         24.3110    5.4370   36.1350 O.2   426  ASN426     -0.2718
    114  CB        26.3900    7.7150   37.3400 C.3   426  ASN426      0.1169
    115  CG        25.1220    7.9220   38.1670 C.2   426  ASN426      0.2627
    116  OD1       24.8570    7.1800   39.1200 O.2   426  ASN426     -0.2716
    117  ND2       24.3400    8.9240   37.8070 N.am  426  ASN426     -0.0877
    118  N         25.4420    6.5610   34.5730 N.am  427  GLN427     -0.1979
    119  CA        24.4010    6.4120   33.5640 C.3   427  GLN427      0.1601
    120  C         24.8940    5.2750   32.6920 C.2   427  GLN427      0.2287
    121  O         25.2610    5.4960   31.5510 O.2   427  GLN427     -0.2864
    122  CB        24.1800    7.6890   32.7760 C.3   427  GLN427      0.0394
    123  CG        23.7150    8.8980   33.6240 C.3   427  GLN427      0.0908
    124  CD        23.3630   10.1030   32.7910 C.2   427  GLN427      0.2608
    125  OE1       22.6250   10.0150   31.8210 O.2   427  GLN427     -0.2717
    126  NE2       23.8870   11.2560   33.1890 N.am  427  GLN427     -0.0878
@<TRIPOS>BOND
     1    50    49    2
     2    57    58    2
     3    57    56    1
     4    55    56    1
     5    49    48    1
     6    56    59    1
     7    94    93    2
     8    59    60    1
     9   121   120    2
    10    48    51    1
    11    48    47    1
    12    39    38    2
    13   125   124    2
    14    93    92    1
    15    51    52    1
    16   102   103    1
    17    60    61    1
    18    60    62    1
    19    47    38   am
    20    38    37    1
    21   120   119    1
    22   122   119    1
    23   122   123    1
    24   124   126   am
    25   124   123    1
    26    54    52    1
    27    92    95    1
    28    92    91    1
    29    52    53    1
    30    37    36    1
    31    37    40    1
    32   103   106    1
    33   103   104    1
    34   119   118    1
    35   106   107    1
    36    95    96    1
    37    97    96   ar
    38    97    99   ar
    39    73    72    1
    40    73    74    2
    41    71    72    1
    42   104   105    2
    43    42    44   ar
    44    42    41   ar
    45   118   112   am
    46    40    41    1
    47    72    75    1
    48    96    98   ar
    49    99   101   ar
    50   107   109   am
    51   107   108    2
    52    31    30    2
    53    44    46   ar
    54    41    43   ar
    55    77    76    2
    56   112   113    2
    57   112   111    1
    58   110   111    1
    59    98   100   ar
    60    30    29    1
    61    75    76    1
    62   101   100   ar
    63    76    78   am
    64    46    45   ar
    65    43    45   ar
    66   111   114    1
    67    66    65    2
    68    34    33    1
    69   114   115    1
    70    29    28    1
    71    29    32    1
    72    33    32    1
    73    33    35    1
    74    65    64    1
    75   117   115   am
    76   115   116    2
    77    69    68    1
    78    64    63    1
    79    64    67    1
    80    79    80    1
    81    83    80    1
    82    83    84    1
    83    25    24    1
    84    25    26    1
    85    90    89    2
    86    68    67    1
    87    68    70    1
    88    89    88    1
    89    80    81    1
    90    12    11    1
    91    82    81    2
    92    17    18    1
    93    17    14    1
    94    24    15   am
    95    18    20   ar
    96    18    19   ar
    97    84    86   am
    98    84    85    2
    99    26    27    2
   100    15    16    2
   101    15    14    1
   102    20    22   ar
   103    19    21   ar
   104    10    11   ar
   105    10     8   ar
   106    11     9   ar
   107    88    87    1
   108    22    23   ar
   109    21    23   ar
   110    14    13    1
   111     8     6   ar
   112     9     7   ar
   113     6     7   ar
   114     6     5    1
   115     5     2    1
   116     4     3    2
   117     3     2    1
   118     2     1    1
