@<TRIPOS>MOLECULE
tmp/2o7fD00.pdb
 106 101 0 0 0
SMALL
GASTEIGER

@<TRIPOS>ATOM
      1  N         -6.4830  -17.5760  -10.0740 N.3    53  TYR53      -0.1241
      2  CA        -5.0300  -17.7060  -10.0030 C.3    53  TYR53       0.1605
      3  C         -4.6410  -19.0860   -9.4750 C.2    53  TYR53       0.2264
      4  O         -5.1060  -19.5010   -8.4150 O.2    53  TYR53      -0.2867
      5  CB        -4.4790  -16.6260   -9.0640 C.3    53  TYR53       0.0534
      6  CG        -2.9750  -16.5980   -8.9210 C.ar   53  TYR53      -0.0201
      7  CD1       -2.1710  -16.0090   -9.8960 C.ar   53  TYR53      -0.0009
      8  CD2       -2.3550  -17.1460   -7.7990 C.ar   53  TYR53      -0.0009
      9  CE1       -0.7850  -15.9630   -9.7580 C.ar   53  TYR53       0.0417
     10  CE2       -0.9700  -17.1080   -7.6480 C.ar   53  TYR53       0.0417
     11  CZ        -0.1910  -16.5140   -8.6310 C.ar   53  TYR53       0.1957
     12  OH         1.1780  -16.4710   -8.4830 O.3    53  TYR53      -0.2866
     13  N          1.6530  -18.4310  -12.8850 N.3    59  PHE59      -0.1227
     14  CA         2.0110  -17.8090  -11.6140 C.3    59  PHE59       0.1736
     15  C          2.7740  -16.5030  -11.7870 C.2    59  PHE59       0.2596
     16  O          3.4340  -16.2800  -12.8060 O.2    59  PHE59      -0.2718
     17  CB         2.8190  -18.7950  -10.7700 C.3    59  PHE59       0.0547
     18  CG         2.0600  -20.0370  -10.4240 C.ar   59  PHE59      -0.0202
     19  CD1        1.0000  -19.9860   -9.5230 C.ar   59  PHE59      -0.0042
     20  CD2        2.3620  -21.2470  -11.0370 C.ar   59  PHE59      -0.0042
     21  CE1        0.2500  -21.1220   -9.2390 C.ar   59  PHE59      -0.0003
     22  CE2        1.6160  -22.3890  -10.7590 C.ar   59  PHE59      -0.0003
     23  CZ         0.5580  -22.3250   -9.8590 C.ar   59  PHE59      -0.0000
     24  N          2.6720  -15.6400  -10.7830 N.am   60  GLY60      -0.1957
     25  CA         3.3490  -14.3610  -10.8420 C.3    60  GLY60       0.1869
     26  C          2.9590  -13.5940  -12.0830 C.2    60  GLY60       0.2309
     27  O          1.7830  -13.5400  -12.4370 O.2    60  GLY60      -0.2863
     28  N          4.6370  -25.8370   -9.7970 N.3    79  LEU79      -0.1245
     29  CA         4.6500  -24.7340   -8.8480 C.3    79  LEU79       0.1561
     30  C          5.5600  -25.0970   -7.6800 C.2    79  LEU79       0.2260
     31  O          6.4660  -24.3440   -7.3130 O.2    79  LEU79      -0.2867
     32  CB         3.2340  -24.4710   -8.3310 C.3    79  LEU79       0.0270
     33  CG         3.1120  -23.4630   -7.1860 C.3    79  LEU79       0.0019
     34  CD1        3.4880  -22.0650   -7.6700 C.3    79  LEU79       0.0001
     35  CD2        1.6890  -23.4840   -6.6550 C.3    79  LEU79       0.0001
     36  N          9.4390  -25.2320   -9.0770 N.3    82  PHE82      -0.1227
     37  CA        10.1950  -24.0040   -9.3140 C.3    82  PHE82       0.1736
     38  C         10.4050  -23.1270   -8.0720 C.2    82  PHE82       0.2595
     39  O         11.3560  -22.3430   -8.0060 O.2    82  PHE82      -0.2718
     40  CB         9.5660  -23.2020  -10.4780 C.3    82  PHE82       0.0547
     41  CG         8.3890  -22.3240  -10.1030 C.ar   82  PHE82      -0.0202
     42  CD1        8.5710  -21.0930   -9.4620 C.ar   82  PHE82      -0.0042
     43  CD2        7.0970  -22.7120  -10.4380 C.ar   82  PHE82      -0.0042
     44  CE1        7.4750  -20.2510   -9.1900 C.ar   82  PHE82      -0.0003
     45  CE2        6.0070  -21.8880  -10.1730 C.ar   82  PHE82      -0.0003
     46  CZ         6.1860  -20.6650   -9.5430 C.ar   82  PHE82      -0.0000
     47  N          9.5350  -23.2850   -7.0810 N.am   83  LEU83      -0.1980
     48  CA         9.6320  -22.5150   -5.8430 C.3    83  LEU83       0.1596
     49  C         10.6400  -23.1180   -4.8740 C.2    83  LEU83       0.2287
     50  O         11.1080  -22.4430   -3.9610 O.2    83  LEU83      -0.2864
     51  CB         8.2710  -22.4530   -5.1510 C.3    83  LEU83       0.0297
     52  CG         7.1910  -21.5700   -5.7710 C.3    83  LEU83       0.0022
     53  CD1        5.8950  -21.7450   -5.0040 C.3    83  LEU83       0.0001
     54  CD2        7.6500  -20.1230   -5.7400 C.3    83  LEU83       0.0001
     55  N          6.5070  -18.6100    0.0760 N.3   143  LEU143     -0.1245
     56  CA         6.3450  -19.7060   -0.8720 C.3   143  LEU143      0.1561
     57  C          7.4710  -20.7290   -0.9140 C.2   143  LEU143      0.2260
     58  O          7.2160  -21.9340   -0.9330 O.2   143  LEU143     -0.2867
     59  CB         6.1100  -19.1420   -2.2740 C.3   143  LEU143      0.0270
     60  CG         4.8610  -18.2640   -2.4050 C.3   143  LEU143      0.0019
     61  CD1        4.6610  -17.8820   -3.8550 C.3   143  LEU143      0.0001
     62  CD2        3.6390  -19.0120   -1.8860 C.3   143  LEU143      0.0001
     63  N         -3.9840  -16.6380   -0.8230 N.3   323  ASN323     -0.1240
     64  CA        -4.3510  -15.9450   -2.0560 C.3   323  ASN323      0.1653
     65  C         -4.2430  -16.9500   -3.1900 C.2   323  ASN323      0.2266
     66  O         -3.1930  -17.5570   -3.3880 O.2   323  ASN323     -0.2867
     67  CB        -3.4610  -14.7490   -2.3780 C.3   323  ASN323      0.1155
     68  CG        -3.9970  -13.9510   -3.5630 C.2   323  ASN323      0.2627
     69  OD1       -5.0620  -13.3450   -3.4780 O.2   323  ASN323     -0.2716
     70  ND2       -3.2770  -13.9730   -4.6760 N.am  323  ASN323     -0.0877
     71  N         -0.9370  -12.1220    1.6390 N.3   340  PHE340     -0.1241
     72  CA         0.2990  -12.8710    1.8380 C.3   340  PHE340      0.1605
     73  C          1.4720  -11.9330    2.1440 C.2   340  PHE340      0.2264
     74  O          2.5630  -12.3890    2.4800 O.2   340  PHE340     -0.2867
     75  CB         0.6100  -13.6930    0.5840 C.3   340  PHE340      0.0534
     76  CG         0.5680  -12.8890   -0.6870 C.ar  340  PHE340     -0.0203
     77  CD1        1.4770  -11.8580   -0.9080 C.ar  340  PHE340     -0.0042
     78  CD2       -0.3890  -13.1560   -1.6610 C.ar  340  PHE340     -0.0042
     79  CE1        1.4350  -11.1020   -2.0770 C.ar  340  PHE340     -0.0003
     80  CE2       -0.4450  -12.4050   -2.8370 C.ar  340  PHE340     -0.0003
     81  CZ         0.4740  -11.3750   -3.0440 C.ar  340  PHE340     -0.0000
     82  N         10.8660  -10.3390   -9.1640 N.3   422  ASN422     -0.1240
     83  CA         9.8630  -11.0850   -9.9250 C.3   422  ASN422      0.1653
     84  C          9.4240  -10.2530  -11.1380 C.2   422  ASN422      0.2266
     85  O          8.2300  -10.0150  -11.3440 O.2   422  ASN422     -0.2867
     86  CB         8.6460  -11.3960   -9.0420 C.3   422  ASN422      0.1155
     87  CG         7.6460  -12.3120   -9.7230 C.2   422  ASN422      0.2627
     88  OD1        6.4480  -12.2430   -9.4600 O.2   422  ASN422     -0.2716
     89  ND2        8.1380  -13.1880  -10.5880 N.am  422  ASN422     -0.0877
     90  N          6.9630   -7.4130  -10.7410 N.3   425  ASN425     -0.1225
     91  CA         5.5830   -7.6630  -10.3250 C.3   425  ASN425      0.1785
     92  C          5.4910   -7.5180   -8.8020 C.2   425  ASN425      0.2597
     93  O          4.4930   -7.0250   -8.2670 O.2   425  ASN425     -0.2718
     94  CB         5.1510   -9.0630  -10.7620 C.3   425  ASN425      0.1169
     95  CG         3.8210   -9.4650  -10.1810 C.2   425  ASN425      0.2627
     96  OD1        2.8150   -8.7730  -10.3520 O.2   425  ASN425     -0.2716
     97  ND2        3.8030  -10.5930   -9.4880 N.am  425  ASN425     -0.0877
     98  N          6.5430   -7.9550   -8.1120 N.am  426  GLN426     -0.1979
     99  CA         6.6250   -7.8400   -6.6570 C.3   426  GLN426      0.1601
    100  C          7.5410   -6.6410   -6.4220 C.2   426  GLN426      0.2287
    101  O          8.6740   -6.8000   -5.9440 O.2   426  GLN426     -0.2864
    102  CB         7.2580   -9.0950   -6.0380 C.3   426  GLN426      0.0394
    103  CG         6.5490  -10.4020   -6.3710 C.3   426  GLN426      0.0908
    104  CD         7.0640  -11.5770   -5.5520 C.2   426  GLN426      0.2608
    105  OE1        8.2620  -11.8420   -5.5070 O.2   426  GLN426     -0.2717
    106  NE2        6.1540  -12.2910   -4.9100 N.am  426  GLN426     -0.0878
@<TRIPOS>BOND
     1    13    14    1
     2    16    15    2
     3    27    26    2
     4    26    25    1
     5    15    14    1
     6    15    24   am
     7    14    17    1
     8    85    84    2
     9    84    83    1
    10    20    22   ar
    11    20    18   ar
    12    25    24    1
    13    17    18    1
    14    94    91    1
    15    94    95    1
    16    22    23   ar
    17    90    91    1
    18    89    87   am
    19    40    41    1
    20    40    37    1
    21    43    45   ar
    22    43    41   ar
    23    18    19   ar
    24    96    95    2
    25    91    92    1
    26    95    97   am
    27    45    46   ar
    28    41    42   ar
    29     1     2    1
    30     2     3    1
    31     2     5    1
    32    83    82    1
    33    83    86    1
    34     7     9   ar
    35     7     6   ar
    36    23    21   ar
    37    28    29    1
    38     9    11   ar
    39    87    88    2
    40    87    86    1
    41    46    44   ar
    42    19    21   ar
    43     3     4    2
    44    42    44   ar
    45    37    36    1
    46    37    38    1
    47     5     6    1
    48     6     8   ar
    49    29    32    1
    50    29    30    1
    51    92    93    2
    52    92    98   am
    53    11    12    1
    54    11    10   ar
    55    32    33    1
    56    98    99    1
    57    38    39    2
    58    38    47   am
    59     8    10   ar
    60    30    31    2
    61    34    33    1
    62    33    35    1
    63    47    48    1
    64    99   100    1
    65    99   102    1
    66   100   101    2
    67   103   102    1
    68   103   104    1
    69    48    51    1
    70    48    49    1
    71    52    54    1
    72    52    51    1
    73    52    53    1
    74   104   105    2
    75   104   106   am
    76    49    50    2
    77    70    68   am
    78    61    60    1
    79    68    69    2
    80    68    67    1
    81    66    65    2
    82    65    64    1
    83    81    80   ar
    84    81    79   ar
    85    80    78   ar
    86    60    59    1
    87    60    62    1
    88    67    64    1
    89    59    56    1
    90    79    77   ar
    91    64    63    1
    92    78    76   ar
    93    58    57    2
    94    57    56    1
    95    77    76   ar
    96    56    55    1
    97    76    75    1
    98    75    72    1
    99    71    72    1
   100    72    73    1
   101    73    74    2
