@<TRIPOS>MOLECULE
tmp/2o7iA00.pdb
 175 177 0 0 0
SMALL
GASTEIGER

@<TRIPOS>ATOM
      1  N        -31.8470   19.4190  -14.4270 N.3    12  GLY12      -0.1210
      2  CA       -32.1680   20.7090  -13.8460 C.3    12  GLY12       0.1956
      3  C        -31.0020   21.6420  -13.5670 C.2    12  GLY12       0.2611
      4  O        -31.1950   22.6890  -12.9740 O.2    12  GLY12      -0.2717
      5  N        -29.8030   21.2830  -14.0240 N.am   13  ALA13      -0.1979
      6  CA       -28.6090   22.1010  -13.7660 C.3    13  ALA13       0.1597
      7  C        -28.0670   22.7800  -15.0250 C.2    13  ALA13       0.2287
      8  O        -27.7310   23.9620  -15.0120 O.2    13  ALA13      -0.2864
      9  CB       -27.5270   21.2570  -13.0920 C.3    13  ALA13       0.0319
     10  N        -28.8740   24.0410  -18.6970 N.3    15  TRP15      -0.1241
     11  CA       -29.9210   24.4870  -19.5950 C.3    15  TRP15       0.1605
     12  C        -29.2650   25.2160  -20.7600 C.2    15  TRP15       0.2264
     13  O        -28.3710   26.0410  -20.5650 O.2    15  TRP15      -0.2867
     14  CB       -30.8640   25.4330  -18.8620 C.3    15  TRP15       0.0550
     15  CG       -31.6770   24.7760  -17.8060 C.ar   15  TRP15       0.0003
     16  CD1      -31.4430   24.7870  -16.4660 C.ar   15  TRP15       0.0946
     17  CD2      -32.8710   24.0140  -18.0040 C.ar   15  TRP15       0.0152
     18  NE1      -32.4210   24.0810  -15.8140 N.ar   15  TRP15      -0.2442
     19  CE2      -33.3140   23.5970  -16.7330 C.ar   15  TRP15       0.0810
     20  CE3      -33.6180   23.6560  -19.1320 C.ar   15  TRP15       0.0012
     21  CZ2      -34.4750   22.8340  -16.5520 C.ar   15  TRP15       0.0191
     22  CZ3      -34.7680   22.8890  -18.9530 C.ar   15  TRP15       0.0001
     23  CH2      -35.1850   22.4930  -17.6730 C.ar   15  TRP15       0.0015
     24  N        -38.8790   21.8140  -18.4860 N.3   215  ASN215     -0.1240
     25  CA       -39.1830   21.0520  -17.2730 C.3   215  ASN215      0.1653
     26  C        -39.9680   19.7680  -17.5400 C.2   215  ASN215      0.2266
     27  O        -39.5870   18.7150  -17.0390 O.2   215  ASN215     -0.2867
     28  CB       -39.8970   21.9200  -16.2320 C.3   215  ASN215      0.1155
     29  CG       -38.9440   22.8300  -15.4680 C.2   215  ASN215      0.2627
     30  OD1      -37.7370   22.5930  -15.4380 O.2   215  ASN215     -0.2716
     31  ND2      -39.4910   23.8670  -14.8360 N.am  215  ASN215     -0.0877
     32  N        -32.3010   18.7200  -10.0030 N.3   231  GLY231     -0.1210
     33  CA       -32.4300   20.0590   -9.4320 C.3   231  GLY231      0.1956
     34  C        -33.5350   20.8250  -10.1270 C.2   231  GLY231      0.2612
     35  O        -33.3570   21.9810  -10.5230 O.2   231  GLY231     -0.2717
     36  N        -34.6950   20.1830  -10.2190 N.am  232  LEU232     -0.1965
     37  CA       -35.7730   20.6180  -11.0900 C.3   232  LEU232      0.1728
     38  C        -36.9780   21.1160  -10.3130 C.2   232  LEU232      0.2616
     39  O        -37.2860   20.6040   -9.2330 O.2   232  LEU232     -0.2715
     40  CB       -36.1920   19.4220  -11.9430 C.3   232  LEU232      0.0311
     41  CG       -36.8260   19.7300  -13.2920 C.3   232  LEU232      0.0022
     42  CD1      -35.7590   20.2160  -14.2810 C.3   232  LEU232      0.0001
     43  CD2      -37.5340   18.4980  -13.8300 C.3   232  LEU232      0.0001
     44  N        -37.6690   22.1190  -10.8520 N.am  233  PHE233     -0.1974
     45  CA       -39.0350   22.3840  -10.4360 C.3   233  PHE233      0.1639
     46  C        -39.8990   21.2490  -10.9680 C.2   233  PHE233      0.2290
     47  O        -39.8680   20.9520  -12.1650 O.2   233  PHE233     -0.2864
     48  CB       -39.5500   23.7060  -10.9900 C.3   233  PHE233      0.0560
     49  CG       -41.0480   23.8390  -10.9000 C.ar  233  PHE233     -0.0200
     50  CD1      -41.6510   24.2150   -9.7100 C.ar  233  PHE233     -0.0042
     51  CD2      -41.8470   23.5680  -11.9980 C.ar  233  PHE233     -0.0042
     52  CE1      -43.0310   24.3240   -9.6170 C.ar  233  PHE233     -0.0003
     53  CE2      -43.2260   23.6720  -11.9040 C.ar  233  PHE233     -0.0003
     54  CZ       -43.8090   24.0630  -10.7130 C.ar  233  PHE233     -0.0000
     55  N        -33.1930   28.0180   -0.8850 N.3   261  ASP261     -0.1239
     56  CA       -31.9260   28.3470   -1.5290 C.3   261  ASP261      0.1674
     57  C        -31.5030   29.7890   -1.3000 C.2   261  ASP261      0.2266
     58  O        -30.3320   30.0730   -1.0360 O.2   261  ASP261     -0.2867
     59  CB       -32.0080   28.1170   -3.0340 C.3   261  ASP261      0.1410
     60  CG       -30.6360   28.1240   -3.6840 C.2   261  ASP261      0.3668
     61  OD1      -29.8410   27.2190   -3.3700 O.co2 261  ASP261     -0.2456
     62  OD2      -30.3350   29.0430   -4.4770 O.co2 261  ASP261     -0.2456
     63  N        -45.8130   28.2520   -8.2290 N.3   298  TYR298     -0.1241
     64  CA       -44.7200   27.7000   -7.4150 C.3   298  TYR298      0.1605
     65  C        -45.1300   26.5530   -6.4880 C.2   298  TYR298      0.2264
     66  O        -44.3040   26.0740   -5.7020 O.2   298  TYR298     -0.2867
     67  CB       -44.0780   28.8240   -6.5980 C.3   298  TYR298      0.0534
     68  CG       -42.5650   28.7440   -6.4520 C.ar  298  TYR298     -0.0201
     69  CD1      -41.7370   28.6850   -7.5700 C.ar  298  TYR298     -0.0009
     70  CD2      -41.9690   28.7990   -5.1990 C.ar  298  TYR298     -0.0009
     71  CE1      -40.3470   28.6370   -7.4360 C.ar  298  TYR298      0.0417
     72  CE2      -40.5810   28.7570   -5.0540 C.ar  298  TYR298      0.0417
     73  CZ       -39.7770   28.6740   -6.1730 C.ar  298  TYR298      0.1957
     74  OH       -38.3970   28.6450   -6.0360 O.3   298  TYR298     -0.2866
     75  N        -38.3130   27.0210  -18.0190 N.3   380  TRP380     -0.1241
     76  CA       -38.3870   27.2100  -16.5620 C.3   380  TRP380      0.1605
     77  C        -39.8340   27.5590  -16.2380 C.2   380  TRP380      0.2264
     78  O        -40.1760   28.7090  -15.9490 O.2   380  TRP380     -0.2867
     79  CB       -37.4210   28.3080  -16.0930 C.3   380  TRP380      0.0550
     80  CG       -35.9520   27.9240  -16.1910 C.ar  380  TRP380      0.0003
     81  CD1      -35.3970   26.9600  -16.9910 C.ar  380  TRP380      0.0946
     82  CD2      -34.8580   28.5420  -15.4980 C.ar  380  TRP380      0.0152
     83  NE1      -34.0340   26.9190  -16.8070 N.ar  380  TRP380     -0.2442
     84  CE2      -33.6750   27.8860  -15.9090 C.ar  380  TRP380      0.0810
     85  CE3      -34.7680   29.5700  -14.5510 C.ar  380  TRP380      0.0012
     86  CZ2      -32.4180   28.2290  -15.4040 C.ar  380  TRP380      0.0191
     87  CZ3      -33.5070   29.9220  -14.0590 C.ar  380  TRP380      0.0001
     88  CH2      -32.3590   29.2410  -14.4750 C.ar  380  TRP380      0.0015
     89  N        -42.2470   27.2540  -14.0580 N.3   382  ASP382     -0.1225
     90  CA       -42.7180   27.9560  -12.8750 C.3   382  ASP382      0.1805
     91  C        -42.4750   29.4640  -12.9690 C.2   382  ASP382      0.2597
     92  O        -43.3970   30.2710  -12.7650 O.2   382  ASP382     -0.2718
     93  CB       -42.0910   27.3670  -11.6000 C.3   382  ASP382      0.1424
     94  CG       -40.5660   27.3590  -11.6240 C.2   382  ASP382      0.3668
     95  OD1      -39.9770   27.1970  -12.7150 O.co2 382  ASP382     -0.2456
     96  OD2      -39.9760   27.5170  -10.5410 O.co2 382  ASP382     -0.2456
     97  N        -41.2460   29.8510  -13.3010 N.am  383  TRP383     -0.1976
     98  CA       -40.9260   31.2640  -13.4700 C.3   383  TRP383      0.1640
     99  C        -41.6490   31.8880  -14.6750 C.2   383  TRP383      0.2290
    100  O        -42.0200   33.0550  -14.6300 O.2   383  TRP383     -0.2864
    101  CB       -39.4180   31.4640  -13.5850 C.3   383  TRP383      0.0576
    102  CG       -38.6650   31.3480  -12.2820 C.ar  383  TRP383      0.0006
    103  CD1      -39.1030   30.7960  -11.1130 C.ar  383  TRP383      0.0946
    104  CD2      -37.3150   31.7640  -12.0490 C.ar  383  TRP383      0.0152
    105  NE1      -38.1170   30.8670  -10.1590 N.ar  383  TRP383     -0.2442
    106  CE2      -37.0040   31.4490  -10.7100 C.ar  383  TRP383      0.0810
    107  CE3      -36.3390   32.3810  -12.8410 C.ar  383  TRP383      0.0012
    108  CZ2      -35.7590   31.7390  -10.1470 C.ar  383  TRP383      0.0191
    109  CZ3      -35.1000   32.6620  -12.2830 C.ar  383  TRP383      0.0001
    110  CH2      -34.8250   32.3390  -10.9460 C.ar  383  TRP383      0.0015
    111  N        -31.7660   29.7740  -22.3310 N.3   408  PHE408     -0.1241
    112  CA       -30.9780   30.1620  -21.1750 C.3   408  PHE408      0.1605
    113  C        -29.7630   31.0320  -21.4860 C.2   408  PHE408      0.2264
    114  O        -29.5380   32.0320  -20.8090 O.2   408  PHE408     -0.2867
    115  CB       -30.4890   28.9340  -20.4030 C.3   408  PHE408      0.0534
    116  CG       -29.6340   29.2930  -19.2300 C.ar  408  PHE408     -0.0203
    117  CD1      -30.2120   29.6100  -18.0130 C.ar  408  PHE408     -0.0042
    118  CD2      -28.2500   29.3720  -19.3530 C.ar  408  PHE408     -0.0042
    119  CE1      -29.4360   29.9770  -16.9300 C.ar  408  PHE408     -0.0003
    120  CE2      -27.4650   29.7470  -18.2800 C.ar  408  PHE408     -0.0003
    121  CZ       -28.0560   30.0450  -17.0640 C.ar  408  PHE408     -0.0000
    122  N        -32.1730   35.0020   -9.3330 N.3   426  TRP426     -0.1241
    123  CA       -31.7320   34.6810   -7.9840 C.3   426  TRP426      0.1605
    124  C        -30.8650   35.7990   -7.4020 C.2   426  TRP426      0.2264
    125  O        -30.6750   36.8430   -8.0220 O.2   426  TRP426     -0.2867
    126  CB       -30.9740   33.3380   -8.0050 C.3   426  TRP426      0.0550
    127  CG       -29.7400   33.3330   -8.8490 C.ar  426  TRP426      0.0003
    128  CD1      -28.4870   33.7380   -8.4750 C.ar  426  TRP426      0.0946
    129  CD2      -29.6290   32.8890  -10.2090 C.ar  426  TRP426      0.0152
    130  NE1      -27.6110   33.5890   -9.5230 N.ar  426  TRP426     -0.2442
    131  CE2      -28.2810   33.0640  -10.5950 C.ar  426  TRP426      0.0810
    132  CE3      -30.5370   32.3590  -11.1380 C.ar  426  TRP426      0.0012
    133  CZ2      -27.8200   32.7320  -11.8780 C.ar  426  TRP426      0.0191
    134  CZ3      -30.0730   32.0270  -12.4110 C.ar  426  TRP426      0.0001
    135  CH2      -28.7280   32.2130  -12.7630 C.ar  426  TRP426      0.0015
    136  N        -36.5660   31.3190   -2.8970 N.3   507  THR507     -0.1203
    137  CA       -36.3780   30.2780   -3.8880 C.3   507  THR507      0.1994
    138  C        -36.1360   28.9270   -3.2290 C.2   507  THR507      0.2617
    139  O        -35.5090   28.8430   -2.1620 O.2   507  THR507     -0.2717
    140  CB       -35.1920   30.5960   -4.7890 C.3   507  THR507      0.1784
    141  OG1      -34.0910   30.9640   -3.9570 O.3   507  THR507     -0.2211
    142  CG2      -35.5150   31.7490   -5.7360 C.3   507  THR507      0.0376
    143  N        -36.6560   27.8880   -3.8760 N.am  508  ALA508     -0.1979
    144  CA       -36.4720   26.5100   -3.4660 C.3   508  ALA508      0.1597
    145  C        -35.1060   25.9940   -3.9150 C.2   508  ALA508      0.2287
    146  O        -34.6800   26.2110   -5.0580 O.2   508  ALA508     -0.2864
    147  CB       -37.5590   25.6450   -4.0700 C.3   508  ALA508      0.0319
    148  N        -33.9770   23.3520   -5.2710 N.3   510  TRP510     -0.1241
    149  CA       -34.4930   22.1940   -6.0030 C.3   510  TRP510      0.1605
    150  C        -33.5440   21.0200   -5.8570 C.2   510  TRP510      0.2264
    151  O        -32.3620   21.1270   -6.1610 O.2   510  TRP510     -0.2867
    152  CB       -34.6530   22.4820   -7.4980 C.3   510  TRP510      0.0550
    153  CG       -35.5140   23.6570   -7.8660 C.ar  510  TRP510      0.0003
    154  CD1      -35.1650   24.6830   -8.6920 C.ar  510  TRP510      0.0946
    155  CD2      -36.8600   23.9210   -7.4420 C.ar  510  TRP510      0.0152
    156  NE1      -36.2010   25.5760   -8.8090 N.ar  510  TRP510     -0.2442
    157  CE2      -37.2530   25.1400   -8.0480 C.ar  510  TRP510      0.0810
    158  CE3      -37.7660   23.2570   -6.6040 C.ar  510  TRP510      0.0012
    159  CZ2      -38.5190   25.7020   -7.8520 C.ar  510  TRP510      0.0191
    160  CZ3      -39.0240   23.8160   -6.4030 C.ar  510  TRP510      0.0001
    161  CH2      -39.3850   25.0360   -7.0160 C.ar  510  TRP510      0.0015
    162  N        -26.9570   21.9490   -9.1010 N.3   535  TRP535     -0.1241
    163  CA       -26.5120   23.2410   -9.6210 C.3   535  TRP535      0.1605
    164  C        -25.8900   24.1730   -8.5860 C.2   535  TRP535      0.2264
    165  O        -25.3560   25.2240   -8.9560 O.2   535  TRP535     -0.2867
    166  CB       -27.6440   23.9870  -10.3290 C.3   535  TRP535      0.0550
    167  CG       -29.0010   23.9840   -9.6760 C.ar  535  TRP535      0.0003
    168  CD1      -30.0800   23.2580  -10.0770 C.ar  535  TRP535      0.0946
    169  CD2      -29.4480   24.7850   -8.5670 C.ar  535  TRP535      0.0152
    170  NE1      -31.1660   23.5360   -9.2890 N.ar  535  TRP535     -0.2442
    171  CE2      -30.8130   24.4680   -8.3510 C.ar  535  TRP535      0.0810
    172  CE3      -28.8380   25.7320   -7.7420 C.ar  535  TRP535      0.0012
    173  CZ2      -31.5760   25.0650   -7.3410 C.ar  535  TRP535      0.0191
    174  CZ3      -29.5940   26.3290   -6.7290 C.ar  535  TRP535      0.0001
    175  CH2      -30.9500   25.9830   -6.5360 C.ar  535  TRP535      0.0015
@<TRIPOS>BOND
     1   111   112    1
     2   113   112    1
     3   113   114    2
     4   112   115    1
     5    12    13    2
     6    12    11    1
     7   115   116    1
     8    11    14    1
     9    11    10    1
    10   118   116   ar
    11   118   120   ar
    12   116   117   ar
    13    20    22   ar
    14    20    17   ar
    15    22    23   ar
    16    14    15    1
    17    24    25    1
    18   120   121   ar
    19    75    76    1
    20   117   119   ar
    21    17    15   ar
    22    17    19   ar
    23    15    16   ar
    24    23    21   ar
    25    26    25    1
    26    26    27    2
    27    25    28    1
    28   121   119   ar
    29    81    83   ar
    30    81    80   ar
    31    83    84   ar
    32    19    21   ar
    33    19    18   ar
    34    76    77    1
    35    76    79    1
    36    16    18   ar
    37    77    78    2
    38    28    29    1
    39    80    79    1
    40    80    82   ar
    41    84    82   ar
    42    84    86   ar
    43    82    85   ar
    44    29    30    2
    45    29    31   am
    46    86    88   ar
    47     7     8    2
    48     7     6    1
    49    99   100    2
    50    99    98    1
    51    85    87   ar
    52    88    87   ar
    53     1     2    1
    54    42    41    1
    55    89    90    1
    56     5     6    1
    57     5     3   am
    58     2     3    1
    59    43    41    1
    60     6     9    1
    61   101    98    1
    62   101   102    1
    63     3     4    2
    64    98    97    1
    65    97    91   am
    66    41    40    1
    67    91    90    1
    68    91    92    2
    69    90    93    1
    70   107   109   ar
    71   107   104   ar
    72   135   134   ar
    73   135   133   ar
    74    95    94   ar
    75   134   132   ar
    76   109   110   ar
    77   102   104   ar
    78   102   103   ar
    79    47    46    2
    80   104   106   ar
    81    51    53   ar
    82    51    49   ar
    83    40    37    1
    84    53    54   ar
    85   133   131   ar
    86    94    93    1
    87    94    96   ar
    88   132   129   ar
    89   103   105   ar
    90    37    38    1
    91    37    36    1
    92    48    49    1
    93    48    45    1
    94    46    45    1
    95   110   108   ar
    96    49    50   ar
    97    44    45    1
    98    44    38   am
    99    54    52   ar
   100   106   105   ar
   101   106   108   ar
   102   131   129   ar
   103   131   130   ar
   104    35    34    2
   105   166   167    1
   106   166   163    1
   107    38    39    2
   108    36    34   am
   109   129   127   ar
   110    34    33    1
   111   168   167   ar
   112   168   170   ar
   113    32    33    1
   114    50    52   ar
   115   167   169   ar
   116   163   162    1
   117   163   164    1
   118   130   128   ar
   119   122   123    1
   120   170   171   ar
   121   165   164    2
   122   127   128   ar
   123   127   126    1
   124   156   154   ar
   125   156   157   ar
   126   154   153   ar
   127   169   171   ar
   128   169   172   ar
   129   171   173   ar
   130    63    64    1
   131   157   159   ar
   132   157   155   ar
   133   125   124    2
   134   126   123    1
   135   123   124    1
   136   153   152    1
   137   153   155   ar
   138   159   161   ar
   139   172   174   ar
   140    69    71   ar
   141    69    68   ar
   142   152   149    1
   143   155   158   ar
   144    71    73   ar
   145    64    67    1
   146    64    65    1
   147   173   175   ar
   148   161   160   ar
   149   174   175   ar
   150   158   160   ar
   151    67    68    1
   152    65    66    2
   153    68    70   ar
   154    73    74    1
   155    73    72   ar
   156   151   150    2
   157   149   150    1
   158   149   148    1
   159   142   140    1
   160    70    72   ar
   161   146   145    2
   162   140   141    1
   163   140   137    1
   164    62    60   ar
   165   147   144    1
   166   145   144    1
   167   137   138    1
   168   137   136    1
   169   143   144    1
   170   143   138   am
   171    60    61   ar
   172    60    59    1
   173   138   139    2
   174    59    56    1
   175    56    57    1
   176    56    55    1
   177    57    58    2
