@<TRIPOS>MOLECULE
tmp/2o7lA00.pdb
 80 76 0 0 0
SMALL
GASTEIGER

@<TRIPOS>ATOM
      1  N         12.1380   47.1160   46.2140 N.3     8  MET8       -0.1245
      2  CA        11.3460   47.0170   44.9960 C.3     8  MET8        0.1570
      3  C         11.3070   48.3660   44.2730 C.2     8  MET8        0.2261
      4  O         11.4520   48.4230   43.0490 O.2     8  MET8       -0.2867
      5  CB         9.9240   46.5510   45.3160 C.3     8  MET8        0.0387
      6  CG         8.9600   46.5610   44.1210 C.3     8  MET8        0.0595
      7  SD         9.3780   45.4690   42.7140 S.3     8  MET8       -0.1393
      8  CE         8.5490   43.9590   43.2410 C.3     8  MET8        0.0692
      9  N         14.4020   33.6300   36.6810 N.3    44  TRP44      -0.1241
     10  CA        14.1340   35.0050   37.0960 C.3    44  TRP44       0.1605
     11  C         13.0540   35.6340   36.2080 C.2    44  TRP44       0.2264
     12  O         12.2700   36.4490   36.6720 O.2    44  TRP44      -0.2867
     13  CB        15.4240   35.8400   37.0550 C.3    44  TRP44       0.0550
     14  CG        16.0090   36.0330   35.6860 C.ar   44  TRP44       0.0003
     15  CD1       15.6650   36.9940   34.7820 C.ar   44  TRP44       0.0946
     16  CD2       17.0280   35.2340   35.0530 C.ar   44  TRP44       0.0152
     17  NE1       16.3980   36.8480   33.6300 N.ar   44  TRP44      -0.2442
     18  CE2       17.2450   35.7800   33.7670 C.ar   44  TRP44       0.0810
     19  CE3       17.7770   34.1120   35.4490 C.ar   44  TRP44       0.0012
     20  CZ2       18.1820   35.2400   32.8630 C.ar   44  TRP44       0.0191
     21  CZ3       18.7100   33.5700   34.5520 C.ar   44  TRP44       0.0001
     22  CH2       18.9030   34.1390   33.2750 C.ar   44  TRP44       0.0015
     23  N          9.4390   36.2980   37.0940 N.3    47  PHE47      -0.1227
     24  CA         9.1910   37.3870   38.0330 C.3    47  PHE47       0.1736
     25  C          9.6560   38.7760   37.5740 C.2    47  PHE47       0.2596
     26  O          8.9710   39.7670   37.8300 O.2    47  PHE47      -0.2718
     27  CB         9.8730   37.1130   39.3810 C.3    47  PHE47       0.0547
     28  CG         9.5890   35.7550   39.9550 C.ar   47  PHE47      -0.0202
     29  CD1       10.3560   34.6500   39.5800 C.ar   47  PHE47      -0.0042
     30  CD2        8.5690   35.5820   40.8860 C.ar   47  PHE47      -0.0042
     31  CE1       10.1100   33.3960   40.1280 C.ar   47  PHE47      -0.0003
     32  CE2        8.3120   34.3300   41.4410 C.ar   47  PHE47      -0.0003
     33  CZ         9.0840   33.2320   41.0640 C.ar   47  PHE47      -0.0000
     34  N         10.8120   38.8400   36.9120 N.am   48  THR48      -0.1953
     35  CA        11.4180   40.1090   36.4910 C.3    48  THR48       0.1897
     36  C         10.6530   41.0280   35.5340 C.2    48  THR48       0.2313
     37  O         11.0360   42.1790   35.3360 O.2    48  THR48      -0.2863
     38  CB        12.8570   39.8810   35.9380 C.3    48  THR48       0.1794
     39  OG1       12.8330   38.9430   34.8500 O.3    48  THR48      -0.2208
     40  CG2       13.7590   39.3670   37.0410 C.3    48  THR48       0.0378
     41  N          7.8690   42.2300   36.1480 N.3    50  ALA50      -0.1231
     42  CA         7.1820   43.2180   36.9830 C.3    50  ALA50       0.1694
     43  C          8.0590   44.4430   37.2710 C.2    50  ALA50       0.2591
     44  O          7.5710   45.4900   37.7150 O.2    50  ALA50      -0.2718
     45  CB         6.7430   42.5800   38.2880 C.3    50  ALA50       0.0304
     46  N          9.3520   44.3000   36.9940 N.am   51  LEU51      -0.1980
     47  CA        10.3420   45.3560   37.2200 C.3    51  LEU51       0.1596
     48  C         10.5120   46.3380   36.0680 C.2    51  LEU51       0.2287
     49  O         11.1130   47.3850   36.2430 O.2    51  LEU51      -0.2864
     50  CB        11.6950   44.7280   37.5390 C.3    51  LEU51       0.0297
     51  CG        12.0410   44.4020   38.9910 C.3    51  LEU51       0.0022
     52  CD1       10.7950   44.0710   39.7880 C.3    51  LEU51       0.0001
     53  CD2       13.0500   43.2640   39.0140 C.3    51  LEU51       0.0001
     54  N          3.4460   39.6910   46.5230 N.3    86  THR86      -0.1203
     55  CA         4.1870   40.1060   45.3360 C.3    86  THR86       0.1994
     56  C          4.5920   38.9300   44.4510 C.2    86  THR86       0.2617
     57  O          4.4670   38.9870   43.2280 O.2    86  THR86      -0.2717
     58  CB         5.4730   40.8880   45.7310 C.3    86  THR86       0.1784
     59  OG1        5.1230   42.0050   46.5520 O.3    86  THR86      -0.2211
     60  CG2        6.2060   41.3850   44.4960 C.3    86  THR86       0.0376
     61  N          5.0880   37.8690   45.0760 N.am   87  LEU87      -0.1979
     62  CA         5.5100   36.6990   44.3320 C.3    87  LEU87       0.1596
     63  C          4.3650   36.0180   43.5800 C.2    87  LEU87       0.2287
     64  O          4.4800   35.7380   42.3880 O.2    87  LEU87      -0.2864
     65  CB         6.1950   35.6990   45.2630 C.3    87  LEU87       0.0297
     66  CG         7.5970   36.0720   45.7450 C.3    87  LEU87       0.0022
     67  CD1        8.1820   34.9340   46.5940 C.3    87  LEU87       0.0001
     68  CD2        8.4880   36.3560   44.5480 C.3    87  LEU87       0.0001
     69  N          2.6970   38.4310   40.9170 N.3    90  ALA90      -0.1245
     70  CA         3.5920   38.6510   39.7940 C.3    90  ALA90       0.1562
     71  C          3.5570   37.4350   38.8610 C.2    90  ALA90       0.2260
     72  O          3.5140   37.5850   37.6470 O.2    90  ALA90      -0.2867
     73  CB         5.0000   38.9040   40.2830 C.3    90  ALA90       0.0290
     74  N          0.8970   43.4550   40.4030 N.3   111  VAL111     -0.1245
     75  CA         1.1740   43.3780   41.8250 C.3   111  VAL111      0.1561
     76  C          0.3790   44.4530   42.5570 C.2   111  VAL111      0.2260
     77  O         -0.1290   44.2130   43.6540 O.2   111  VAL111     -0.2867
     78  CB         2.7050   43.5230   42.0890 C.3   111  VAL111      0.0252
     79  CG1        2.9950   43.6720   43.5850 C.3   111  VAL111      0.0019
     80  CG2        3.4310   42.2870   41.5440 C.3   111  VAL111      0.0019
@<TRIPOS>BOND
     1    20    22   ar
     2    20    18   ar
     3    22    21   ar
     4    17    18   ar
     5    17    15   ar
     6    18    16   ar
     7    21    19   ar
     8    15    14   ar
     9    39    38    1
    10    16    19   ar
    11    16    14   ar
    12    37    36    2
    13    36    35    1
    14    14    13    1
    15    38    35    1
    16    38    40    1
    17    48    49    2
    18    48    47    1
    19    41    42    1
    20    11    12    2
    21    11    10    1
    22    35    34    1
    23     9    10    1
    24    34    25   am
    25    42    43    1
    26    42    45    1
    27    46    47    1
    28    46    43   am
    29    13    10    1
    30    23    24    1
    31    47    50    1
    32    43    44    2
    33    50    51    1
    34    25    26    2
    35    25    24    1
    36    72    71    2
    37    24    27    1
    38    71    70    1
    39    51    53    1
    40    51    52    1
    41    27    28    1
    42    29    28   ar
    43    29    31   ar
    44    70    73    1
    45    70    69    1
    46    28    30   ar
    47    31    33   ar
    48    74    75    1
    49    30    32   ar
    50    33    32   ar
    51    80    78    1
    52    75    78    1
    53    75    76    1
    54    78    79    1
    55    64    63    2
    56    76    77    2
    57     7     8    1
    58     7     6    1
    59     4     3    2
    60    57    56    2
    61    63    62    1
    62     6     5    1
    63     3     2    1
    64    62    61    1
    65    62    65    1
    66    56    61   am
    67    56    55    1
    68    60    58    1
    69    68    66    1
    70     2     5    1
    71     2     1    1
    72    65    66    1
    73    55    58    1
    74    55    54    1
    75    58    59    1
    76    66    67    1
