@<TRIPOS>MOLECULE
tmp/2o7nA00.pdb
 202 188 0 0 0
SMALL
GASTEIGER

@<TRIPOS>ATOM
      1  N         -1.8490   31.5430   -8.1660 N.3     1  MET1       -0.1245
      2  CA        -0.9520   30.7500   -7.2780 C.3     1  MET1        0.1570
      3  C         -0.1680   31.6710   -6.3480 C.2     1  MET1        0.2261
      4  O          1.0280   31.9030   -6.5440 O.2     1  MET1       -0.2867
      5  CB         0.0170   29.9100   -8.1180 C.3     1  MET1        0.0387
      6  CG        -0.6720   28.9940   -9.1250 C.3     1  MET1        0.0595
      7  SD         0.4100   27.6980   -9.7720 S.3     1  MET1       -0.1393
      8  CE         1.5110   28.6510  -10.8290 C.3     1  MET1        0.0692
      9  N          1.7340   31.8930   -3.6790 N.3     3  VAL3       -0.1245
     10  CA         2.5590   31.0670   -2.8210 C.3     3  VAL3        0.1561
     11  C          3.8910   31.7190   -2.4690 C.2     3  VAL3        0.2260
     12  O          4.5680   32.2780   -3.3330 O.2     3  VAL3       -0.2867
     13  CB         2.8450   29.7080   -3.5170 C.3     3  VAL3        0.0252
     14  CG1        3.7550   28.8420   -2.6560 C.3     3  VAL3        0.0019
     15  CG2        1.5360   28.9920   -3.8120 C.3     3  VAL3        0.0019
     16  N          7.2650   30.5960   -1.3630 N.3     5  LEU5       -0.1245
     17  CA         8.0440   29.3660   -1.2820 C.3     5  LEU5        0.1561
     18  C          9.4880   29.5910   -0.8860 C.2     5  LEU5        0.2260
     19  O         10.1570   30.4730   -1.4180 O.2     5  LEU5       -0.2867
     20  CB         7.9970   28.6270   -2.6290 C.3     5  LEU5        0.0270
     21  CG         8.6870   27.2530   -2.7000 C.3     5  LEU5        0.0019
     22  CD1        8.0130   26.4000   -3.7650 C.3     5  LEU5        0.0001
     23  CD2       10.1740   27.4130   -2.9970 C.3     5  LEU5        0.0001
     24  N         13.2360   27.7230   -0.4390 N.3     7  PHE7       -0.1241
     25  CA        14.0780   26.5770   -0.7490 C.3     7  PHE7        0.1605
     26  C         15.0550   26.4990    0.4180 C.2     7  PHE7        0.2264
     27  O         15.7340   27.4770    0.7130 O.2     7  PHE7       -0.2867
     28  CB        14.9030   26.8070   -2.0170 C.3     7  PHE7        0.0534
     29  CG        14.1140   26.7620   -3.2870 C.ar    7  PHE7       -0.0203
     30  CD1       13.5980   25.5610   -3.7580 C.ar    7  PHE7       -0.0042
     31  CD2       13.9330   27.9180   -4.0420 C.ar    7  PHE7       -0.0042
     32  CE1       12.9140   25.5060   -4.9740 C.ar    7  PHE7       -0.0003
     33  CE2       13.2490   27.8740   -5.2560 C.ar    7  PHE7       -0.0003
     34  CZ        12.7430   26.6650   -5.7180 C.ar    7  PHE7       -0.0000
     35  N         18.4950   23.5410  -10.0650 N.3    26  PHE26      -0.1241
     36  CA        17.1030   23.1210   -9.9030 C.3    26  PHE26       0.1605
     37  C         16.2840   24.3010   -9.3860 C.2    26  PHE26       0.2264
     38  O         15.1980   24.5820   -9.8860 O.2    26  PHE26      -0.2867
     39  CB        17.0060   21.9620   -8.9090 C.3    26  PHE26       0.0534
     40  CG        15.5900   21.5890   -8.5320 C.ar   26  PHE26      -0.0203
     41  CD1       14.7780   20.8880   -9.4160 C.ar   26  PHE26      -0.0042
     42  CD2       15.0810   21.9260   -7.2810 C.ar   26  PHE26      -0.0042
     43  CE1       13.4740   20.5210   -9.0600 C.ar   26  PHE26      -0.0003
     44  CE2       13.7800   21.5670   -6.9120 C.ar   26  PHE26      -0.0003
     45  CZ        12.9750   20.8620   -7.8030 C.ar   26  PHE26      -0.0000
     46  N         13.2570   26.1670  -11.4760 N.3    30  VAL30      -0.1245
     47  CA        11.9100   26.2670  -10.9280 C.3    30  VAL30       0.1561
     48  C         11.4650   27.7300  -10.8980 C.2    30  VAL30       0.2260
     49  O         10.3500   28.0600  -11.3090 O.2    30  VAL30      -0.2867
     50  CB        11.8410   25.6950   -9.4880 C.3    30  VAL30       0.0252
     51  CG1       10.4980   26.0480   -8.8450 C.3    30  VAL30       0.0019
     52  CG2       12.0250   24.1850   -9.5200 C.3    30  VAL30       0.0019
     53  N         10.6910   29.1040  -14.3900 N.3    33  LYS33      -0.1231
     54  CA         9.4310   28.5720  -14.9030 C.3    33  LYS33       0.1693
     55  C          8.2300   29.2860  -14.2880 C.2    33  LYS33       0.2591
     56  O          7.2280   29.5340  -14.9640 O.2    33  LYS33      -0.2718
     57  CB         9.3390   27.0680  -14.6060 C.3    33  LYS33       0.0285
     58  CG         8.0230   26.4050  -15.0250 C.3    33  LYS33       0.0035
     59  CD         7.8640   26.3800  -16.5380 C.3    33  LYS33       0.0206
     60  CE         6.5900   25.6480  -16.9510 C.3    33  LYS33       0.1093
     61  NZ         6.4790   25.5280  -18.4360 N.3    33  LYS33      -0.1314
     62  N          8.3400   29.6280  -13.0070 N.am   34  LEU34      -0.1980
     63  CA         7.2540   30.2890  -12.2850 C.3    34  LEU34       0.1596
     64  C          7.3980   31.8100  -12.1620 C.2    34  LEU34       0.2287
     65  O          6.7930   32.4280  -11.2820 O.2    34  LEU34      -0.2864
     66  CB         7.1380   29.6680  -10.8870 C.3    34  LEU34       0.0297
     67  CG         6.8350   28.1640  -10.8810 C.3    34  LEU34       0.0022
     68  CD1        6.9350   27.6140   -9.4600 C.3    34  LEU34       0.0001
     69  CD2        5.4430   27.9300  -11.4500 C.3    34  LEU34       0.0001
     70  N          3.9380   33.4900   -7.5700 N.3    39  TYR39      -0.1241
     71  CA         4.9300   32.8790   -6.6950 C.3    39  TYR39       0.1605
     72  C          5.9740   33.9000   -6.2670 C.2    39  TYR39       0.2264
     73  O          6.3840   34.7600   -7.0520 O.2    39  TYR39      -0.2867
     74  CB         5.6600   31.7380   -7.4040 C.3    39  TYR39       0.0534
     75  CG         5.1660   30.3580   -7.0480 C.ar   39  TYR39      -0.0201
     76  CD1        3.9730   29.8640   -7.5730 C.ar   39  TYR39      -0.0009
     77  CD2        5.9010   29.5380   -6.1890 C.ar   39  TYR39      -0.0009
     78  CE1        3.5270   28.5820   -7.2570 C.ar   39  TYR39       0.0417
     79  CE2        5.4620   28.2580   -5.8660 C.ar   39  TYR39       0.0417
     80  CZ         4.2780   27.7880   -6.4060 C.ar   39  TYR39       0.1957
     81  OH         3.8620   26.5120   -6.1150 O.3    39  TYR39      -0.2866
     82  N          0.1180   31.2830    0.7250 N.3   104  THR104     -0.1218
     83  CA         0.2530   29.9430    1.2700 C.3   104  THR104      0.1862
     84  C          1.7530   29.7160    1.4120 C.2   104  THR104      0.2287
     85  O          2.5160   29.9980    0.4910 O.2   104  THR104     -0.2866
     86  CB        -0.3510   28.8960    0.3290 C.3   104  THR104      0.1770
     87  OG1       -1.7600   29.1380    0.2050 O.3   104  THR104     -0.2211
     88  CG2       -0.1250   27.4940    0.8740 C.3   104  THR104      0.0375
     89  N          5.1200   27.5410    1.6760 N.3   106  VAL106     -0.1245
     90  CA         5.6630   26.2600    1.2560 C.3   106  VAL106      0.1561
     91  C          7.1630   26.2300    1.4780 C.2   106  VAL106      0.2260
     92  O          7.8560   27.2040    1.2000 O.2   106  VAL106     -0.2867
     93  CB         5.3760   26.0030   -0.2410 C.3   106  VAL106      0.0252
     94  CG1        5.9910   24.6780   -0.6800 C.3   106  VAL106      0.0019
     95  CG2        3.8740   25.9810   -0.4700 C.3   106  VAL106      0.0019
     96  N         10.5400   23.8150    0.6730 N.3   108  ILE108     -0.1245
     97  CA        11.0860   22.7110   -0.1040 C.3   108  ILE108      0.1561
     98  C         12.4720   22.4370    0.4580 C.2   108  ILE108      0.2260
     99  O         13.3870   23.2410    0.2830 O.2   108  ILE108     -0.2867
    100  CB        11.2420   23.0820   -1.5990 C.3   108  ILE108      0.0252
    101  CG1        9.9090   23.5790   -2.1680 C.3   108  ILE108      0.0019
    102  CG2       11.7610   21.8840   -2.3760 C.3   108  ILE108      0.0019
    103  CD1        8.7390   22.6260   -1.9700 C.3   108  ILE108      0.0001
    104  N          3.5880   24.1930    4.5510 N.3   128  ILE128     -0.1245
    105  CA         3.4720   22.9540    3.7900 C.3   128  ILE128      0.1561
    106  C          4.9180   22.5670    3.5100 C.2   128  ILE128      0.2260
    107  O          5.6600   23.3430    2.9110 O.2   128  ILE128     -0.2867
    108  CB         2.7290   23.1890    2.4680 C.3   128  ILE128      0.0252
    109  CG1        1.2910   23.6170    2.7670 C.3   128  ILE128      0.0019
    110  CG2        2.7550   21.9210    1.6170 C.3   128  ILE128      0.0019
    111  CD1        0.5090   24.0440    1.5430 C.3   128  ILE128      0.0001
    112  N          7.8120   19.9600    1.8830 N.3   130  TYR130     -0.1241
    113  CA         8.2200   18.8940    0.9850 C.3   130  TYR130      0.1605
    114  C          9.6940   18.6740    1.2530 C.2   130  TYR130      0.2264
    115  O         10.4130   19.6110    1.6060 O.2   130  TYR130     -0.2867
    116  CB         8.0830   19.3180   -0.4780 C.3   130  TYR130      0.0534
    117  CG         6.6720   19.3630   -0.9920 C.ar  130  TYR130     -0.0201
    118  CD1        6.1090   18.2560   -1.6180 C.ar  130  TYR130     -0.0009
    119  CD2        5.8950   20.5120   -0.8430 C.ar  130  TYR130     -0.0009
    120  CE1        4.8030   18.2870   -2.0830 C.ar  130  TYR130      0.0417
    121  CE2        4.5870   20.5540   -1.3050 C.ar  130  TYR130      0.0417
    122  CZ         4.0500   19.4410   -1.9200 C.ar  130  TYR130      0.1957
    123  OH         2.7460   19.4650   -2.3540 O.3   130  TYR130     -0.2866
    124  N         13.1340   16.6590   -0.4760 N.3   132  ILE132     -0.1245
    125  CA        13.7050   15.9270   -1.5920 C.3   132  ILE132      0.1561
    126  C         15.0040   15.2990   -1.0980 C.2   132  ILE132      0.2260
    127  O         15.9730   16.0080   -0.8330 O.2   132  ILE132     -0.2867
    128  CB        13.9920   16.8880   -2.7660 C.3   132  ILE132      0.0252
    129  CG1       12.6890   17.5760   -3.1920 C.3   132  ILE132      0.0019
    130  CG2       14.5950   16.1310   -3.9490 C.3   132  ILE132      0.0019
    131  CD1       12.8820   18.6760   -4.2200 C.3   132  ILE132      0.0001
    132  N          3.2920   11.6730   -0.4830 N.3   157  GLU157     -0.1245
    133  CA         3.1600   12.8030   -1.3920 C.3   157  GLU157      0.1567
    134  C          4.1910   13.8970   -1.1470 C.2   157  GLU157      0.2260
    135  O          4.6540   14.5400   -2.0880 O.2   157  GLU157     -0.2867
    136  CB         1.7530   13.4000   -1.2850 C.3   157  GLU157      0.0388
    137  CG         1.5560   14.7180   -2.0320 C.3   157  GLU157      0.1160
    138  CD         1.8220   14.6100   -3.5250 C.2   157  GLU157      0.3649
    139  OE1        1.1630   13.7870   -4.1970 O.co2 157  GLU157     -0.2457
    140  OE2        2.6890   15.3560   -4.0290 O.co2 157  GLU157     -0.2457
    141  N         10.0350   13.1730   -1.5440 N.3   160  LYS160     -0.1245
    142  CA        10.4700   12.7800   -2.8780 C.3   160  LYS160      0.1561
    143  C         11.8580   12.1670   -2.7720 C.2   160  LYS160      0.2260
    144  O         12.7880   12.8210   -2.3060 O.2   160  LYS160     -0.2867
    145  CB        10.5430   13.9970   -3.8050 C.3   160  LYS160      0.0271
    146  CG         9.2970   14.8770   -3.8430 C.3   160  LYS160      0.0035
    147  CD         8.0780   14.1340   -4.3650 C.3   160  LYS160      0.0206
    148  CE         6.8790   15.0710   -4.4580 C.3   160  LYS160      0.1093
    149  NZ         5.6360   14.3610   -4.8790 N.3   160  LYS160     -0.1314
    150  N         12.3520   15.2310  -11.8890 N.3   171  LEU171     -0.1231
    151  CA        11.3930   15.7230  -10.9040 C.3   171  LEU171      0.1693
    152  C         10.7400   17.0200  -11.3710 C.2   171  LEU171      0.2592
    153  O          9.5260   17.1860  -11.2680 O.2   171  LEU171     -0.2718
    154  CB        12.0780   15.9550   -9.5510 C.3   171  LEU171      0.0284
    155  CG        11.1890   16.6090   -8.4840 C.3   171  LEU171      0.0019
    156  CD1       10.0070   15.7040   -8.1770 C.3   171  LEU171      0.0001
    157  CD2       11.9970   16.8670   -7.2170 C.3   171  LEU171      0.0001
    158  N         11.5550   17.9360  -11.8820 N.am  172  PHE172     -0.1976
    159  CA        11.0570   19.2170  -12.3580 C.3   172  PHE172      0.1639
    160  C         10.0180   19.0140  -13.4560 C.2   172  PHE172      0.2290
    161  O          8.9750   19.6650  -13.4540 O.2   172  PHE172     -0.2864
    162  CB        12.2190   20.0710  -12.8700 C.3   172  PHE172      0.0560
    163  CG        11.8250   21.4680  -13.2590 C.ar  172  PHE172     -0.0200
    164  CD1       10.9470   22.2030  -12.4720 C.ar  172  PHE172     -0.0042
    165  CD2       12.3600   22.0600  -14.3960 C.ar  172  PHE172     -0.0042
    166  CE1       10.6060   23.5100  -12.8130 C.ar  172  PHE172     -0.0003
    167  CE2       12.0250   23.3690  -14.7450 C.ar  172  PHE172     -0.0003
    168  CZ        11.1480   24.0910  -13.9500 C.ar  172  PHE172     -0.0000
    169  N          6.8090   17.7840  -11.9770 N.3   175  LEU175     -0.1231
    170  CA         6.1000   18.8530  -11.2840 C.3   175  LEU175      0.1693
    171  C          5.3520   19.7660  -12.2540 C.2   175  LEU175      0.2591
    172  O          4.1850   20.0890  -12.0350 O.2   175  LEU175     -0.2718
    173  CB         7.0780   19.6820  -10.4460 C.3   175  LEU175      0.0284
    174  CG         7.6980   18.9900   -9.2280 C.3   175  LEU175      0.0019
    175  CD1        8.8490   19.8360   -8.6970 C.3   175  LEU175      0.0001
    176  CD2        6.6380   18.7850   -8.1490 C.3   175  LEU175      0.0001
    177  N          6.0190   20.1710  -13.3310 N.am  176  GLN176     -0.1979
    178  CA         5.4020   21.0560  -14.3140 C.3   176  GLN176      0.1601
    179  C          4.1010   20.4940  -14.8800 C.2   176  GLN176      0.2287
    180  O          3.1590   21.2410  -15.1420 O.2   176  GLN176     -0.2864
    181  CB         6.3660   21.3250  -15.4720 C.3   176  GLN176      0.0394
    182  CG         7.6920   21.9130  -15.0560 C.3   176  GLN176      0.0908
    183  CD         8.6290   22.1020  -16.2280 C.2   176  GLN176      0.2608
    184  OE1        9.8400   21.9480  -16.0960 O.2   176  GLN176     -0.2717
    185  NE2        8.0730   22.4470  -17.3830 N.am  176  GLN176     -0.0878
    186  N          1.8240   18.8640  -13.4650 N.3   178  LYS178     -0.1231
    187  CA         0.6990   18.9540  -12.5410 C.3   178  LYS178      0.1693
    188  C         -0.1140   20.2360  -12.6650 C.2   178  LYS178      0.2591
    189  O         -1.3110   20.2510  -12.3630 O.2   178  LYS178     -0.2718
    190  CB         1.1980   18.8030  -11.1010 C.3   178  LYS178      0.0285
    191  CG         1.9640   17.5150  -10.8590 C.3   178  LYS178      0.0035
    192  CD         1.6240   16.9060   -9.5060 C.3   178  LYS178      0.0206
    193  CE         1.9340   17.8500   -8.3600 C.3   178  LYS178      0.1093
    194  NZ         1.4700   17.2850   -7.0620 N.3   178  LYS178     -0.1314
    195  N          0.5260   21.3150  -13.1010 N.am  179  ILE179     -0.1980
    196  CA        -0.1840   22.5780  -13.2400 C.3   179  ILE179      0.1595
    197  C         -0.5890   22.8470  -14.6800 C.2   179  ILE179      0.2287
    198  O          0.1810   23.3900  -15.4720 O.2   179  ILE179     -0.2864
    199  CB         0.6500   23.7680  -12.7050 C.3   179  ILE179      0.0276
    200  CG1        2.0330   23.7900  -13.3570 C.3   179  ILE179      0.0022
    201  CG2        0.7710   23.6680  -11.1910 C.3   179  ILE179      0.0022
    202  CD1        2.7910   25.0850  -13.1170 C.3   179  ILE179      0.0001
@<TRIPOS>BOND
     1    61    60    1
     2   185   183   am
     3    60    59    1
     4    59    58    1
     5   183   184    2
     6   183   182    1
     7   198   197    2
     8   181   182    1
     9   181   178    1
    10   180   179    2
    11    58    57    1
    12    56    55    2
    13    54    57    1
    14    54    53    1
    15    54    55    1
    16   179   178    1
    17   167   165   ar
    18   167   168   ar
    19   197   196    1
    20   165   163   ar
    21   178   177    1
    22    55    62   am
    23   168   166   ar
    24   186   187    1
    25   160   161    2
    26   160   159    1
    27   200   202    1
    28   200   199    1
    29   177   171   am
    30   163   162    1
    31   163   164   ar
    32   196   195    1
    33   196   199    1
    34   195   188   am
    35    62    63    1
    36   162   159    1
    37   166   164   ar
    38   199   201    1
    39   188   187    1
    40   188   189    2
    41   187   190    1
    42   159   158    1
    43    63    64    1
    44    63    66    1
    45   171   172    2
    46   171   170    1
    47    64    65    2
    48   169   170    1
    49   150   151    1
    50   158   152   am
    51    46    47    1
    52    69    67    1
    53   152   153    2
    54   152   151    1
    55    49    48    2
    56   170   173    1
    57   190   191    1
    58    47    48    1
    59    47    50    1
    60   151   154    1
    61    66    67    1
    62    67    68    1
    63   191   192    1
    64     8     7    1
    65   173   174    1
    66    35    36    1
    67    36    37    1
    68    36    39    1
    69    38    37    2
    70     7     6    1
    71   154   155    1
    72    52    50    1
    73   192   193    1
    74    50    51    1
    75    41    43   ar
    76    41    40   ar
    77   174   175    1
    78   174   176    1
    79     6     5    1
    80    43    45   ar
    81    39    40    1
    82    40    42   ar
    83   155   156    1
    84   155   157    1
    85   193   194    1
    86     1     2    1
    87     5     2    1
    88    45    44   ar
    89    76    78   ar
    90    76    75   ar
    91    70    71    1
    92    74    75    1
    93    74    71    1
    94    42    44   ar
    95     2     3    1
    96    78    80   ar
    97    73    72    2
    98    75    77   ar
    99    71    72    1
   100     4     3    2
   101    80    81    1
   102    80    79   ar
   103    77    79   ar
   104    34    33   ar
   105    34    32   ar
   106    33    31   ar
   107    32    30   ar
   108   149   148    1
   109   148   147    1
   110   147   146    1
   111   131   129    1
   112   139   138   ar
   113    31    29   ar
   114   140   138   ar
   115   130   128    1
   116   146   145    1
   117    15    13    1
   118   145   142    1
   119    22    21    1
   120    30    29   ar
   121     9    10    1
   122   138   137    1
   123    13    10    1
   124    13    14    1
   125    12    11    2
   126    29    28    1
   127   129   128    1
   128    23    21    1
   129   142   143    1
   130   142   141    1
   131    10    11    1
   132   143   144    2
   133   128   125    1
   134    21    20    1
   135    20    17    1
   136   102   100    1
   137   123   122    1
   138   101   103    1
   139   101   100    1
   140   135   134    2
   141   120   122   ar
   142   120   118   ar
   143   137   136    1
   144    28    25    1
   145   122   121   ar
   146   118   117   ar
   147   100    97    1
   148   125   126    1
   149   125   124    1
   150    19    18    2
   151   133   136    1
   152   133   134    1
   153   133   132    1
   154    16    17    1
   155   121   119   ar
   156    17    18    1
   157   126   127    2
   158   117   119   ar
   159   117   116    1
   160    25    24    1
   161    25    26    1
   162    94    93    1
   163   116   113    1
   164    95    93    1
   165    93    90    1
   166    97    98    1
   167    97    96    1
   168    87    86    1
   169    99    98    2
   170    86    88    1
   171    86    83    1
   172    26    27    2
   173    85    84    2
   174    82    83    1
   175   113   114    1
   176   113   112    1
   177    92    91    2
   178   114   115    2
   179    90    91    1
   180    90    89    1
   181    83    84    1
   182   111   109    1
   183   110   108    1
   184   108   109    1
   185   108   105    1
   186   107   106    2
   187   106   105    1
   188   105   104    1
