@<TRIPOS>MOLECULE
tmp/2o7pA00.pdb
 202 194 0 0 0
SMALL
GASTEIGER

@<TRIPOS>ATOM
      1  N         69.5950  -69.2620   33.3840 N.3   144  LYS144     -0.1231
      2  CA        68.2720  -69.2990   33.9750 C.3   144  LYS144      0.1693
      3  C         68.2130  -68.2320   35.0480 C.2   144  LYS144      0.2592
      4  O         69.0970  -68.1920   35.8880 O.2   144  LYS144     -0.2718
      5  CB        67.9480  -70.7070   34.4960 C.3   144  LYS144      0.0285
      6  CG        67.7660  -70.8450   35.9680 C.3   144  LYS144      0.0035
      7  CD        66.3180  -70.5060   36.3790 C.3   144  LYS144      0.0206
      8  CE        66.2820  -70.0040   37.8490 C.3   144  LYS144      0.1093
      9  NZ        67.2250  -70.7350   38.8380 N.3   144  LYS144     -0.1314
     10  N         67.2080  -67.3580   34.9990 N.am  145  LEU145     -0.1966
     11  CA        66.9690  -66.3770   36.0540 C.3   145  LEU145      0.1728
     12  C         65.6170  -66.6070   36.6810 C.2   145  LEU145      0.2616
     13  O         64.6130  -66.7420   35.9780 O.2   145  LEU145     -0.2715
     14  CB        66.8820  -64.9820   35.4710 C.3   145  LEU145      0.0311
     15  CG        68.0380  -64.0730   35.0830 C.3   145  LEU145      0.0022
     16  CD1       69.3120  -64.8330   34.7910 C.3   145  LEU145      0.0001
     17  CD2       67.5900  -63.2270   33.8880 C.3   145  LEU145      0.0001
     18  N         65.5510  -66.5660   38.0040 N.am  146  GLY146     -0.1955
     19  CA        64.2460  -66.4950   38.6940 C.3   146  GLY146      0.1869
     20  C         63.9760  -65.1320   39.3340 C.2   146  GLY146      0.2309
     21  O         64.8490  -64.5770   40.0360 O.2   146  GLY146     -0.2863
     22  N         65.2410  -61.2770   43.6550 N.3   153  THR153     -0.1203
     23  CA        65.5640  -62.7070   43.7510 C.3   153  THR153      0.1994
     24  C         66.2460  -63.1200   45.0700 C.2   153  THR153      0.2617
     25  O         67.2240  -62.5070   45.4750 O.2   153  THR153     -0.2717
     26  CB        66.5040  -63.1140   42.5710 C.3   153  THR153      0.1784
     27  OG1       67.3020  -64.2580   42.9230 O.3   153  THR153     -0.2211
     28  CG2       67.4390  -61.9590   42.2200 C.3   153  THR153      0.0376
     29  N         65.7070  -64.1400   45.7340 N.am  154  ALA154     -0.1979
     30  CA        66.4800  -65.0330   46.6380 C.3   154  ALA154      0.1597
     31  C         67.5000  -64.4810   47.6470 C.2   154  ALA154      0.2287
     32  O         67.1120  -63.9530   48.7140 O.2   154  ALA154     -0.2864
     33  CB        67.1610  -66.1070   45.8140 C.3   154  ALA154      0.0319
     34  N         71.1850  -65.9520   49.5290 N.3   155  ALA155     -0.1245
     35  CA        71.6010  -66.8060   50.6710 C.3   155  ALA155      0.1562
     36  C         70.5320  -67.7060   51.3160 C.2   155  ALA155      0.2260
     37  O         70.5560  -67.9270   52.5310 O.2   155  ALA155     -0.2867
     38  CB        72.3240  -65.9670   51.7420 C.3   155  ALA155      0.0290
     39  N         65.6470  -71.5080   45.4880 N.3   161  TRP161     -0.1241
     40  CA        65.9120  -70.8890   44.1780 C.3   161  TRP161      0.1605
     41  C         64.5590  -70.6630   43.5060 C.2   161  TRP161      0.2264
     42  O         64.2700  -69.5690   43.0100 O.2   161  TRP161     -0.2867
     43  CB        66.7020  -71.8440   43.2560 C.3   161  TRP161      0.0550
     44  CG        68.1760  -71.9120   43.4090 C.ar  161  TRP161      0.0003
     45  CD1       69.0810  -72.5070   42.5450 C.ar  161  TRP161      0.0946
     46  CD2       68.9360  -71.3760   44.4650 C.ar  161  TRP161      0.0152
     47  NE1       70.3670  -72.3730   43.0190 N.ar  161  TRP161     -0.2442
     48  CE2       70.3030  -71.6730   44.1950 C.ar  161  TRP161      0.0810
     49  CE3       68.6080  -70.6640   45.6210 C.ar  161  TRP161      0.0012
     50  CZ2       71.3160  -71.2860   45.0430 C.ar  161  TRP161      0.0191
     51  CZ3       69.6130  -70.2780   46.4620 C.ar  161  TRP161      0.0001
     52  CH2       70.9530  -70.5880   46.1700 C.ar  161  TRP161      0.0015
     53  N         78.8470  -70.3110   40.1610 N.3   184  SER184     -0.1202
     54  CA        79.9310  -69.5550   40.7590 C.3   184  SER184      0.2020
     55  C         80.3340  -70.1290   42.0930 C.2   184  SER184      0.2619
     56  O         79.6430  -70.9820   42.6640 O.2   184  SER184     -0.2717
     57  CB        79.4810  -68.1400   41.0210 C.3   184  SER184      0.2103
     58  OG        78.6600  -68.1400   42.2060 O.3   184  SER184     -0.2182
     59  N         81.4430  -69.6140   42.6090 N.am  185  SER185     -0.1937
     60  CA        81.9270  -70.0290   43.9180 C.3   185  SER185      0.2055
     61  C         81.1680  -69.3200   45.0320 C.2   185  SER185      0.2643
     62  O         80.9690  -69.8760   46.1110 O.2   185  SER185     -0.2714
     63  CB        83.4140  -69.7280   44.0840 C.3   185  SER185      0.2130
     64  OG        83.6460  -68.3060   44.0530 O.3   185  SER185     -0.2179
     65  N         80.7830  -68.0770   44.7840 N.am  186  ALA186     -0.1963
     66  CA        79.9070  -67.3620   45.6910 C.3   186  ALA186      0.1728
     67  C         78.6490  -68.1710   46.0270 C.2   186  ALA186      0.2616
     68  O         78.2810  -68.2720   47.1920 O.2   186  ALA186     -0.2715
     69  CB        79.5310  -66.0180   45.1100 C.3   186  ALA186      0.0334
     70  N         78.0080  -68.7490   45.0160 N.am  187  THR187     -0.1951
     71  CA        76.7870  -69.5130   45.2110 C.3   187  THR187      0.1897
     72  C         77.0290  -70.7920   46.0070 C.2   187  THR187      0.2313
     73  O         76.2120  -71.1930   46.8350 O.2   187  THR187     -0.2863
     74  CB        76.1320  -69.8610   43.8450 C.3   187  THR187      0.1794
     75  OG1       75.8020  -68.6420   43.1610 O.3   187  THR187     -0.2208
     76  CG2       74.8730  -70.7310   44.0030 C.3   187  THR187      0.0378
     77  N         77.6540  -69.7980   49.7930 N.3   190  ALA190     -0.1231
     78  CA        76.4500  -69.2860   50.4790 C.3   190  ALA190      0.1694
     79  C         75.2790  -70.2680   50.5870 C.2   190  ALA190      0.2592
     80  O         74.3970  -70.1040   51.4470 O.2   190  ALA190     -0.2718
     81  CB        75.9600  -68.0420   49.7860 C.3   190  ALA190      0.0304
     82  N         75.2400  -71.2780   49.7240 N.am  191  ASP191     -0.1974
     83  CA        74.0470  -72.1040   49.6630 C.3   191  ASP191      0.1709
     84  C         74.2370  -73.5710   49.8970 C.2   191  ASP191      0.2293
     85  O         73.2480  -74.3040   50.0350 O.2   191  ASP191     -0.2864
     86  CB        73.3770  -71.8960   48.3310 C.3   191  ASP191      0.1436
     87  CG        72.6530  -70.6110   48.2850 C.2   191  ASP191      0.3671
     88  OD1       72.8790  -69.8310   47.3400 O.co2 191  ASP191     -0.2456
     89  OD2       71.8670  -70.3600   49.2220 O.co2 191  ASP191     -0.2456
     90  N         82.9750  -72.0610   38.9590 N.3   223  ILE223     -0.1231
     91  CA        84.0460  -71.0590   38.8040 C.3   223  ILE223      0.1692
     92  C         84.6180  -70.5900   40.1610 C.2   223  ILE223      0.2592
     93  O         83.8460  -70.2390   41.0650 O.2   223  ILE223     -0.2718
     94  CB        83.5260  -69.7900   38.0970 C.3   223  ILE223      0.0266
     95  CG1       83.2980  -70.0590   36.6100 C.3   223  ILE223      0.0019
     96  CG2       84.5010  -68.6620   38.2210 C.3   223  ILE223      0.0020
     97  CD1       82.6340  -68.8990   35.8580 C.3   223  ILE223      0.0001
     98  N         85.9460  -70.5700   40.3320 N.am  224  ASP224     -0.1960
     99  CA        86.5640  -69.6890   41.3610 C.3   224  ASP224      0.1840
    100  C         88.0680  -69.4970   41.2910 C.2   224  ASP224      0.2623
    101  O         88.8300  -70.4230   41.5790 O.2   224  ASP224     -0.2715
    102  CB        86.1990  -69.9910   42.8340 C.3   224  ASP224      0.1450
    103  CG        86.4300  -71.4370   43.2180 C.2   224  ASP224      0.3671
    104  OD1       86.0680  -72.2860   42.3620 O.co2 224  ASP224     -0.2456
    105  OD2       86.9250  -71.7240   44.3560 O.co2 224  ASP224     -0.2456
    106  N         88.4590  -68.2590   40.9560 N.am  225  SER225     -0.1936
    107  CA        89.8410  -67.7870   40.9080 C.3   225  SER225      0.2055
    108  C         90.5790  -68.0110   42.2140 C.2   225  SER225      0.2642
    109  O         91.7650  -68.4130   42.2220 O.2   225  SER225     -0.2714
    110  CB        89.8670  -66.2830   40.6580 C.3   225  SER225      0.2130
    111  OG        88.6880  -65.8690   40.0240 O.3   225  SER225     -0.2179
    112  N         89.8580  -67.7400   43.3080 N.am  226  GLN226     -0.1976
    113  CA        90.4440  -67.6000   44.6390 C.3   226  GLN226      0.1601
    114  C         90.5430  -68.8980   45.4340 C.2   226  GLN226      0.2287
    115  O         90.8920  -68.8800   46.6040 O.2   226  GLN226     -0.2864
    116  CB        89.6230  -66.6030   45.4390 C.3   226  GLN226      0.0394
    117  CG        89.7370  -65.1220   45.0400 C.3   226  GLN226      0.0908
    118  CD        88.8270  -64.2480   45.9400 C.2   226  GLN226      0.2608
    119  OE1       87.6600  -63.9440   45.5830 O.2   226  GLN226     -0.2717
    120  NE2       89.3410  -63.8930   47.1430 N.am  226  GLN226     -0.0878
    121  N         88.3950  -70.7820   46.9050 N.3   228  ARG228     -0.1245
    122  CA        87.6740  -70.6810   48.1810 C.3   228  ARG228      0.1563
    123  C         86.8430  -71.9410   48.5740 C.2   228  ARG228      0.2260
    124  O         86.6450  -72.2080   49.7680 O.2   228  ARG228     -0.2867
    125  CB        86.7420  -69.4660   48.1780 C.3   228  ARG228      0.0307
    126  CG        87.3990  -68.1060   48.0290 C.3   228  ARG228      0.0489
    127  CD        86.5630  -67.1740   47.0980 C.3   228  ARG228      0.2205
    128  NE        85.3140  -66.6820   47.6760 N.pl3 228  ARG228     -0.0865
    129  CZ        84.3150  -66.1440   46.9660 C.cat 228  ARG228      0.5346
    130  NH1       83.2150  -65.7280   47.5880 N.pl3 228  ARG228      0.1354
    131  NH2       84.3880  -66.0150   45.6380 N.pl3 228  ARG228      0.1354
    132  N         89.9240  -60.7620   37.0880 N.3   269  HIS269     -0.1226
    133  CA        89.3900  -62.0990   37.3460 C.3   269  HIS269      0.1752
    134  C         89.4230  -63.0410   36.1090 C.2   269  HIS269      0.2595
    135  O         89.7730  -62.6230   35.0130 O.2   269  HIS269     -0.2718
    136  CB        87.9890  -61.9940   37.9870 C.3   269  HIS269      0.0759
    137  CG        87.2040  -60.7710   37.5770 C.ar  269  HIS269      0.0818
    138  ND1       87.2900  -60.2020   36.3170 N.ar  269  HIS269     -0.2268
    139  CD2       86.2860  -60.0320   38.2580 C.ar  269  HIS269      0.1154
    140  CE1       86.4800  -59.1560   36.2510 C.ar  269  HIS269      0.1986
    141  NE2       85.8560  -59.0330   37.4140 N.ar  269  HIS269     -0.2212
    142  N         89.0660  -64.3070   36.3300 N.am  270  LEU270     -0.1980
    143  CA        89.1600  -65.4110   35.3620 C.3   270  LEU270      0.1596
    144  C         88.5410  -65.1260   33.9920 C.2   270  LEU270      0.2287
    145  O         87.3790  -64.7900   33.9260 O.2   270  LEU270     -0.2864
    146  CB        88.4710  -66.6470   35.9760 C.3   270  LEU270      0.0297
    147  CG        88.4930  -68.0260   35.2920 C.3   270  LEU270      0.0022
    148  CD1       88.5360  -69.1280   36.3090 C.3   270  LEU270      0.0001
    149  CD2       87.3350  -68.2240   34.3580 C.3   270  LEU270      0.0001
    150  N         86.3640  -65.4330   31.2790 N.3   272  LEU272     -0.1245
    151  CA        85.1690  -66.1520   30.8720 C.3   272  LEU272      0.1561
    152  C         85.2060  -66.7180   29.4600 C.2   272  LEU272      0.2260
    153  O         84.7880  -67.8370   29.2440 O.2   272  LEU272     -0.2867
    154  CB        83.9470  -65.2650   31.0230 C.3   272  LEU272      0.0270
    155  CG        83.3990  -65.1520   32.4350 C.3   272  LEU272      0.0019
    156  CD1       82.2000  -64.2400   32.4630 C.3   272  LEU272      0.0001
    157  CD2       83.0210  -66.5250   32.9910 C.3   272  LEU272      0.0001
    158  N         73.4850  -71.6480   36.7060 N.3   288  GLU288     -0.1231
    159  CA        72.7320  -71.3020   37.9010 C.3   288  GLU288      0.1699
    160  C         73.6340  -70.4240   38.7170 C.2   288  GLU288      0.2592
    161  O         74.5040  -70.9310   39.4590 O.2   288  GLU288     -0.2718
    162  CB        72.4090  -72.5350   38.7390 C.3   288  GLU288      0.0402
    163  CG        71.4550  -73.5440   38.0960 C.3   288  GLU288      0.1161
    164  CD        70.0140  -73.4100   38.6130 C.2   288  GLU288      0.3649
    165  OE1       69.2270  -74.3990   38.4840 O.co2 288  GLU288     -0.2457
    166  OE2       69.6770  -72.3050   39.1270 O.co2 288  GLU288     -0.2457
    167  N         73.4470  -69.1140   38.5700 N.am  289  ALA289     -0.1966
    168  CA        74.3570  -68.1550   39.1980 C.3   289  ALA289      0.1728
    169  C         73.5670  -67.0640   39.8340 C.2   289  ALA289      0.2617
    170  O         72.3880  -66.8970   39.5320 O.2   289  ALA289     -0.2715
    171  CB        75.2850  -67.5500   38.1720 C.3   289  ALA289      0.0334
    172  N         74.2380  -66.3160   40.7040 N.am  290  GLY290     -0.1941
    173  CA        73.7310  -65.0320   41.1570 C.3   290  GLY290      0.1998
    174  C         73.8620  -63.9210   40.1210 C.2   290  GLY290      0.2481
    175  O         74.1910  -64.1510   38.9460 O.2   290  GLY290     -0.2729
    176  N         73.5960  -62.6950   40.5680 N.am  291  PRO291     -0.2715
    177  CA        73.4920  -61.5210   39.7130 C.3   291  PRO291      0.1536
    178  C         74.8140  -61.1140   39.0630 C.2   291  PRO291      0.2599
    179  O         74.8640  -60.8480   37.8530 O.2   291  PRO291     -0.2715
    180  CB        72.9830  -60.4500   40.6740 C.3   291  PRO291      0.0310
    181  CG        72.3790  -61.2450   41.8390 C.3   291  PRO291      0.0237
    182  CD        73.3210  -62.3670   41.9740 C.3   291  PRO291      0.0939
    183  N         75.8720  -61.0830   39.8620 N.am  292  THR292     -0.1937
    184  CA        77.1760  -60.6920   39.3810 C.3   292  THR292      0.2028
    185  C         77.5230  -61.5300   38.1350 C.2   292  THR292      0.2642
    186  O         77.7590  -60.9740   37.0610 O.2   292  THR292     -0.2714
    187  CB        78.2050  -60.8210   40.5290 C.3   292  THR292      0.1808
    188  OG1       77.7250  -60.0710   41.6450 O.3   292  THR292     -0.2208
    189  CG2       79.5730  -60.3110   40.1360 C.3   292  THR292      0.0379
    190  N         77.4960  -62.8600   38.2720 N.am  293  LEU293     -0.1977
    191  CA        77.9170  -63.7670   37.1860 C.3   293  LEU293      0.1596
    192  C         77.0030  -63.6940   35.9540 C.2   293  LEU293      0.2287
    193  O         77.4900  -63.6990   34.8130 O.2   293  LEU293     -0.2864
    194  CB        78.0140  -65.2150   37.6690 C.3   293  LEU293      0.0297
    195  CG        79.1100  -66.0690   37.0290 C.3   293  LEU293      0.0022
    196  CD1       78.6780  -67.5060   36.8810 C.3   293  LEU293      0.0001
    197  CD2       79.5260  -65.5500   35.6860 C.3   293  LEU293      0.0001
    198  N         78.0200  -60.6300   34.0230 N.3   296  ALA296     -0.1245
    199  CA        79.2070  -60.7660   33.1880 C.3   296  ALA296      0.1562
    200  C         78.9270  -61.5980   31.9350 C.2   296  ALA296      0.2260
    201  O         79.1900  -61.1480   30.8160 O.2   296  ALA296     -0.2867
    202  CB        80.3420  -61.3470   33.9740 C.3   296  ALA296      0.0290
@<TRIPOS>BOND
     1   153   152    2
     2   152   151    1
     3   201   200    2
     4   151   154    1
     5   151   150    1
     6   154   155    1
     7   200   199    1
     8   155   156    1
     9   155   157    1
    10   199   202    1
    11   199   198    1
    12     1     2    1
    13    17    15    1
    14   145   144    2
    15     2     5    1
    16     2     3    1
    17   144   143    1
    18   149   147    1
    19     5     6    1
    20    16    15    1
    21   193   192    2
    22    10     3   am
    23    10    11    1
    24   135   134    2
    25     3     4    2
    26    15    14    1
    27   147   146    1
    28   147   148    1
    29   143   146    1
    30   143   142    1
    31    14    11    1
    32   197   195    1
    33    97    95    1
    34   192   191    1
    35     6     7    1
    36    13    12    2
    37    11    12    1
    38   134   142   am
    39   134   133    1
    40   140   138   ar
    41   140   141   ar
    42   138   137   ar
    43     7     8    1
    44    95    94    1
    45    12    18   am
    46   158   159    1
    47   196   195    1
    48   195   194    1
    49   186   185    2
    50   132   133    1
    51   191   194    1
    52   191   190    1
    53   133   136    1
    54   141   139   ar
    55   137   136    1
    56   137   139   ar
    57     8     9    1
    58   179   178    2
    59   159   160    1
    60   159   162    1
    61    18    19    1
    62   163   164    1
    63   163   162    1
    64    94    96    1
    65    94    91    1
    66   185   190   am
    67   185   184    1
    68   171   168    1
    69   165   164   ar
    70   167   160   am
    71   167   168    1
    72   164   166   ar
    73    19    20    1
    74   160   161    2
    75    91    90    1
    76    91    92    1
    77   175   174    2
    78   178   177    1
    79   178   183   am
    80   168   169    1
    81    20    21    2
    82   184   183    1
    83   184   187    1
    84   170   169    2
    85   177   176    1
    86   177   180    1
    87   169   172   am
    88   111   110    1
    89   174   176   am
    90   174   173    1
    91   189   187    1
    92    53    54    1
    93    92    98   am
    94    92    93    2
    95    98    99    1
    96   187   188    1
    97   176   182    1
    98   110   107    1
    99   180   181    1
   100   172   173    1
   101    54    57    1
   102    54    55    1
   103   107   106    1
   104   107   108    1
   105   106   100   am
   106    57    58    1
   107   100    99    1
   108   100   101    2
   109    99   102    1
   110   181   182    1
   111    55    59   am
   112    55    56    2
   113   108   109    2
   114   108   112   am
   115    28    26    1
   116   104   103   ar
   117    45    47   ar
   118    45    44   ar
   119    26    27    1
   120    26    23    1
   121    59    60    1
   122   102   103    1
   123    42    41    2
   124    47    48   ar
   125    75    74    1
   126   103   105   ar
   127    43    44    1
   128    43    40    1
   129   112   113    1
   130    44    46   ar
   131    41    40    1
   132    22    23    1
   133    23    24    1
   134    74    76    1
   135    74    71    1
   136    60    63    1
   137    60    61    1
   138    64    63    1
   139    40    39    1
   140    48    46   ar
   141    48    50   ar
   142    46    49   ar
   143   113   114    1
   144   113   116    1
   145    65    61   am
   146    65    66    1
   147    70    71    1
   148    70    67   am
   149    61    62    2
   150   117   116    1
   151   117   118    1
   152    50    52   ar
   153    24    25    2
   154    24    29   am
   155    69    66    1
   156    71    72    1
   157   114   115    2
   158   119   118    2
   159    49    51   ar
   160   131   129    1
   161    66    67    1
   162    29    30    1
   163    33    30    1
   164   118   120   am
   165    72    73    2
   166    67    68    2
   167    52    51   ar
   168    30    31    1
   169   121   122    1
   170   129   130    1
   171   129   128    2
   172   127   128    1
   173   127   126    1
   174    88    87   ar
   175    31    32    2
   176   126   125    1
   177   125   122    1
   178   122   123    1
   179    87    86    1
   180    87    89   ar
   181    86    83    1
   182   123   124    2
   183    34    35    1
   184    83    82    1
   185    83    84    1
   186    82    79   am
   187    81    78    1
   188    77    78    1
   189    84    85    2
   190    78    79    1
   191    79    80    2
   192    35    36    1
   193    35    38    1
   194    36    37    2
