@<TRIPOS>MOLECULE
tmp/2o7qA01.pdb
 123 115 0 0 0
SMALL
GASTEIGER

@<TRIPOS>ATOM
      1  N         39.5560   39.8140   75.7880 N.3   239  ILE239     -0.1245
      2  CA        38.4960   40.0950   76.7390 C.3   239  ILE239      0.1561
      3  C         37.1550   40.1160   75.9960 C.2   239  ILE239      0.2260
      4  O         36.8940   40.9890   75.1560 O.2   239  ILE239     -0.2867
      5  CB        38.7220   41.4410   77.4740 C.3   239  ILE239      0.0252
      6  CG1       37.4810   41.7910   78.3040 C.3   239  ILE239      0.0019
      7  CG2       39.0560   42.5470   76.4780 C.3   239  ILE239      0.0019
      8  CD1       37.1400   40.7620   79.3790 C.3   239  ILE239      0.0001
      9  N         36.2450   49.8300   76.9060 N.3   246  HIS246     -0.1226
     10  CA        36.7820   50.4540   78.1060 C.3   246  HIS246      0.1752
     11  C         37.7480   49.5190   78.8240 C.2   246  HIS246      0.2596
     12  O         38.4790   49.9480   79.7060 O.2   246  HIS246     -0.2718
     13  CB        35.6530   50.7410   79.0790 C.3   246  HIS246      0.0759
     14  CG        34.9730   49.4960   79.5430 C.ar  246  HIS246      0.0818
     15  ND1       34.1100   48.7850   78.7390 N.ar  246  HIS246     -0.2268
     16  CD2       35.1380   48.7560   80.6650 C.ar  246  HIS246      0.1154
     17  CE1       33.7780   47.6570   79.3420 C.ar  246  HIS246      0.1986
     18  NE2       34.3890   47.6130   80.5110 N.ar  246  HIS246     -0.2212
     19  N         37.7330   48.2420   78.4700 N.am  247  SER247     -0.1952
     20  CA        38.5840   47.2730   79.1560 C.3   247  SER247      0.1924
     21  C         40.0790   47.5450   79.1190 C.2   247  SER247      0.2314
     22  O         40.6510   47.8250   78.0700 O.2   247  SER247     -0.2863
     23  CB        38.3290   45.8640   78.6260 C.3   247  SER247      0.2116
     24  OG        39.3680   44.9890   79.0350 O.3   247  SER247     -0.2180
     25  N         42.1300   45.2140   80.2780 N.3   249  SER249     -0.1217
     26  CA        42.7800   43.9060   80.3340 C.3   249  SER249      0.1889
     27  C         43.8720   43.7840   79.2590 C.2   249  SER249      0.2288
     28  O         44.9230   43.1900   79.4980 O.2   249  SER249     -0.2866
     29  CB        41.7590   42.7770   80.1830 C.3   249  SER249      0.2089
     30  OG        41.0010   42.6070   81.3730 O.3   249  SER249     -0.2183
     31  N         38.9030   36.1380   78.7360 N.3   290  SER290     -0.1202
     32  CA        38.4200   36.7330   79.9790 C.3   290  SER290      0.2020
     33  C         36.9710   37.0970   79.6260 C.2   290  SER290      0.2619
     34  O         36.6870   37.4570   78.4850 O.2   290  SER290     -0.2717
     35  CB        39.2080   38.0060   80.3340 C.3   290  SER290      0.2103
     36  OG        40.5920   37.7420   80.5570 O.3   290  SER290     -0.2182
     37  N         36.0520   36.9940   80.5760 N.am  291  CYS291     -0.1955
     38  CA        34.6580   37.3270   80.2840 C.3   291  CYS291      0.1843
     39  C         34.0830   38.3550   81.2290 C.2   291  CYS291      0.2626
     40  O         34.2210   38.2370   82.4500 O.2   291  CYS291     -0.2714
     41  CB        33.7670   36.0830   80.3530 C.3   291  CYS291      0.0997
     42  SG        34.1650   34.8130   79.1630 S.3   291  CYS291     -0.0797
     43  N         33.4330   39.3610   80.6590 N.am  292  THR292     -0.1950
     44  CA        32.7910   40.3910   81.4540 C.3   292  THR292      0.1897
     45  C         31.3570   40.5150   80.9340 C.2   292  THR292      0.2313
     46  O         30.9410   39.7450   80.0690 O.2   292  THR292     -0.2863
     47  CB        33.5310   41.7500   81.3350 C.3   292  THR292      0.1794
     48  OG1       32.9490   42.6910   82.2460 O.3   292  THR292     -0.2208
     49  CG2       33.4370   42.2970   79.9210 C.3   292  THR292      0.0378
     50  N         29.2920   36.4500   81.2990 N.3   296  LYS296     -0.1245
     51  CA        29.8110   35.6510   82.4100 C.3   296  LYS296      0.1561
     52  C         29.0370   34.3520   82.6540 C.2   296  LYS296      0.2260
     53  O         29.6340   33.2780   82.7620 O.2   296  LYS296     -0.2867
     54  CB        29.8310   36.4710   83.7040 C.3   296  LYS296      0.0271
     55  CG        30.8560   37.5960   83.7290 C.3   296  LYS296      0.0035
     56  CD        30.8740   38.2610   85.1000 C.3   296  LYS296      0.0206
     57  CE        31.8160   39.4530   85.1460 C.3   296  LYS296      0.1093
     58  NZ        33.2380   39.0740   84.9250 N.3   296  LYS296     -0.1314
     59  N         34.3790   33.8140   84.3760 N.3   316  ASN316     -0.1240
     60  CA        34.9890   35.0190   83.8250 C.3   316  ASN316      0.1653
     61  C         36.3430   34.6860   83.1860 C.2   316  ASN316      0.2266
     62  O         37.0360   35.5730   82.6840 O.2   316  ASN316     -0.2867
     63  CB        35.1690   36.0900   84.9080 C.3   316  ASN316      0.1155
     64  CG        36.3740   35.8330   85.7980 C.2   316  ASN316      0.2627
     65  OD1       36.9310   36.7670   86.3910 O.2   316  ASN316     -0.2716
     66  ND2       36.7800   34.5660   85.9060 N.am  316  ASN316     -0.0877
     67  N         36.8390   36.3660   89.8210 N.3   333  ASP333     -0.1239
     68  CA        36.1390   37.5400   90.3620 C.3   333  ASP333      0.1674
     69  C         35.9550   37.4430   91.8710 C.2   333  ASP333      0.2266
     70  O         36.1290   38.4250   92.5910 O.2   333  ASP333     -0.2867
     71  CB        34.7410   37.7090   89.7420 C.3   333  ASP333      0.1410
     72  CG        34.7760   38.2530   88.3240 C.2   333  ASP333      0.3668
     73  OD1       35.5820   39.1750   88.0510 O.co2 333  ASP333     -0.2456
     74  OD2       33.9780   37.7680   87.4880 O.co2 333  ASP333     -0.2456
     75  N         36.0170   50.0820   87.3600 N.3   437  TYR437     -0.1241
     76  CA        37.3550   50.6470   87.5080 C.3   437  TYR437      0.1605
     77  C         37.6500   51.7020   86.4390 C.2   437  TYR437      0.2264
     78  O         38.7460   52.2730   86.3880 O.2   437  TYR437     -0.2867
     79  CB        38.4220   49.5410   87.4860 C.3   437  TYR437      0.0534
     80  CG        38.5260   48.7820   86.1850 C.ar  437  TYR437     -0.0201
     81  CD1       37.6310   47.7580   85.8710 C.ar  437  TYR437     -0.0009
     82  CD2       39.5240   49.0920   85.2640 C.ar  437  TYR437     -0.0009
     83  CE1       37.7340   47.0620   84.6700 C.ar  437  TYR437      0.0417
     84  CE2       39.6340   48.4110   84.0680 C.ar  437  TYR437      0.0417
     85  CZ        38.7430   47.3990   83.7730 C.ar  437  TYR437      0.1957
     86  OH        38.8700   46.7360   82.5760 O.3   437  TYR437     -0.2866
     87  N         40.2650   45.2790   92.7290 N.3   461  MET461     -0.1230
     88  CA        39.6940   43.9900   92.3540 C.3   461  MET461      0.1702
     89  C         40.1810   43.5730   90.9740 C.2   461  MET461      0.2592
     90  O         40.5410   42.4100   90.7590 O.2   461  MET461     -0.2718
     91  CB        38.1640   44.0720   92.3690 C.3   461  MET461      0.0401
     92  CG        37.4360   42.8570   91.7880 C.3   461  MET461      0.0596
     93  SD        37.3530   42.8120   89.9750 S.3   461  MET461     -0.1393
     94  CE        36.4730   41.2660   89.7310 C.3   461  MET461      0.0692
     95  N         40.2030   44.5310   90.0470 N.am  462  PHE462     -0.1976
     96  CA        40.6330   44.2760   88.6680 C.3   462  PHE462      0.1639
     97  C         42.0320   43.6830   88.5440 C.2   462  PHE462      0.2290
     98  O         42.2420   42.7090   87.8100 O.2   462  PHE462     -0.2864
     99  CB        40.5800   45.5660   87.8370 C.3   462  PHE462      0.0560
    100  CG        41.0580   45.3860   86.4200 C.ar  462  PHE462     -0.0200
    101  CD1       40.2880   44.6870   85.5000 C.ar  462  PHE462     -0.0042
    102  CD2       42.2920   45.8900   86.0190 C.ar  462  PHE462     -0.0042
    103  CE1       40.7350   44.4890   84.2000 C.ar  462  PHE462     -0.0003
    104  CE2       42.7540   45.7010   84.7200 C.ar  462  PHE462     -0.0003
    105  CZ        41.9770   45.0000   83.8080 C.ar  462  PHE462     -0.0000
    106  N         42.0840   39.9760   90.1000 N.3   465  GLN465     -0.1245
    107  CA        41.4940   38.9510   89.2430 C.3   465  GLN465      0.1566
    108  C         42.3140   38.7830   87.9830 C.2   465  GLN465      0.2260
    109  O         42.3190   37.7160   87.3800 O.2   465  GLN465     -0.2867
    110  CB        40.0290   39.2860   88.8870 C.3   465  GLN465      0.0367
    111  CG        39.7990   40.4830   87.9470 C.3   465  GLN465      0.0905
    112  CD        40.0980   40.1730   86.4930 C.2   465  GLN465      0.2608
    113  OE1       39.7400   39.1090   85.9880 O.2   465  GLN465     -0.2717
    114  NE2       40.7440   41.1110   85.8040 N.am  465  GLN465     -0.0878
    115  N         44.3350   35.3900   86.3360 N.3   469  GLN469     -0.1245
    116  CA        44.0310   34.9220   84.9880 C.3   469  GLN469      0.1566
    117  C         45.3410   34.6660   84.2450 C.2   469  GLN469      0.2260
    118  O         45.4420   33.7490   83.4210 O.2   469  GLN469     -0.2867
    119  CB        43.1880   35.9560   84.2240 C.3   469  GLN469      0.0367
    120  CG        41.7850   36.1700   84.7800 C.3   469  GLN469      0.0905
    121  CD        40.8820   36.9160   83.8010 C.2   469  GLN469      0.2608
    122  OE1       41.2530   37.9640   83.2730 O.2   469  GLN469     -0.2717
    123  NE2       39.6890   36.3740   83.5570 N.am  469  GLN469     -0.0878
@<TRIPOS>BOND
     1     4     3    2
     2     1     2    1
     3     3     2    1
     4     7     5    1
     5     2     5    1
     6     9    10    1
     7     5     6    1
     8    22    21    2
     9    10    11    1
    10    10    13    1
    11     6     8    1
    12    19    11   am
    13    19    20    1
    14    34    33    2
    15    23    24    1
    16    23    20    1
    17    31    32    1
    18    15    17   ar
    19    15    14   ar
    20    11    12    2
    21    13    14    1
    22    21    20    1
    23    42    41    1
    24    27    28    2
    25    27    26    1
    26    17    18   ar
    27    14    16   ar
    28    33    32    1
    29    33    37   am
    30    49    47    1
    31    32    35    1
    32    46    45    2
    33    29    26    1
    34    29    30    1
    35    25    26    1
    36    38    41    1
    37    38    37    1
    38    38    39    1
    39    35    36    1
    40    18    16   ar
    41    43    39   am
    42    43    44    1
    43    45    44    1
    44    39    40    2
    45    50    51    1
    46    47    44    1
    47    47    48    1
    48    51    52    1
    49    51    54    1
    50    86    85    1
    51    52    53    2
    52    62    61    2
    53    61    60    1
    54   122   121    2
    55   118   117    2
    56   123   121   am
    57    54    55    1
    58    55    56    1
    59    85    84   ar
    60    85    83   ar
    61   121   120    1
    62   105   103   ar
    63   105   104   ar
    64    60    59    1
    65    60    63    1
    66    84    82   ar
    67   103   101   ar
    68   119   120    1
    69   119   116    1
    70   117   116    1
    71    83    81   ar
    72   104   102   ar
    73    63    64    1
    74    58    57    1
    75   116   115    1
    76    56    57    1
    77    82    80   ar
    78   101   100   ar
    79    64    66   am
    80    64    65    2
    81   114   112   am
    82    81    80   ar
    83   113   112    2
    84   102   100   ar
    85    80    79    1
    86    78    77    2
    87   100    99    1
    88    77    76    1
    89   112   111    1
    90    75    76    1
    91   109   108    2
    92    79    76    1
    93    74    72   ar
    94    98    97    2
    95    99    96    1
    96   111   110    1
    97   108   107    1
    98    73    72   ar
    99    72    71    1
   100    97    96    1
   101    96    95    1
   102   110   107    1
   103   107   106    1
   104    94    93    1
   105    71    68    1
   106    67    68    1
   107    93    92    1
   108    95    89   am
   109    68    69    1
   110    90    89    2
   111    89    88    1
   112    92    91    1
   113    69    70    2
   114    88    91    1
   115    88    87    1
