@<TRIPOS>MOLECULE
tmp/2o7qA00.pdb
 128 116 0 0 0
SMALL
GASTEIGER

@<TRIPOS>ATOM
      1  N         50.4250   56.4490   54.0080 N.3    35  GLU35      -0.1245
      2  CA        49.5030   56.4610   52.8920 C.3    35  GLU35       0.1567
      3  C         49.0660   57.9020   52.7300 C.2    35  GLU35       0.2260
      4  O         48.4200   58.4680   53.6130 O.2    35  GLU35      -0.2867
      5  CB        48.2600   55.6150   53.1390 C.3    35  GLU35       0.0388
      6  CG        47.3240   55.6730   51.9280 C.3    35  GLU35       0.1160
      7  CD        45.9480   55.0920   52.1750 C.2    35  GLU35       0.3649
      8  OE1       45.3030   54.6950   51.1870 O.co2  35  GLU35      -0.2457
      9  OE2       45.5020   55.0440   53.3400 O.co2  35  GLU35      -0.2457
     10  N         46.6760   60.3020   51.4810 N.3    37  ARG37      -0.1245
     11  CA        45.3030   60.3490   50.9850 C.3    37  ARG37       0.1563
     12  C         45.0980   61.6750   50.2490 C.2    37  ARG37       0.2260
     13  O         44.5980   62.6530   50.8080 O.2    37  ARG37      -0.2867
     14  CB        44.3130   60.2060   52.1460 C.3    37  ARG37       0.0307
     15  CG        44.2110   58.7830   52.6940 C.3    37  ARG37       0.0489
     16  CD        43.6000   57.8560   51.6470 C.3    37  ARG37       0.2205
     17  NE        42.2800   58.3290   51.2410 N.pl3  37  ARG37      -0.0865
     18  CZ        41.1450   58.0270   51.8640 C.cat  37  ARG37       0.5346
     19  NH1       41.1540   57.2310   52.9230 N.pl3  37  ARG37       0.1354
     20  NH2       40.0040   58.5510   51.4420 N.pl3  37  ARG37       0.1354
     21  N         47.2700   57.4110   47.4160 N.3    64  THR64      -0.1218
     22  CA        45.8880   57.0570   47.1920 C.3    64  THR64       0.1862
     23  C         45.1410   58.3360   46.8350 C.2    64  THR64       0.2287
     24  O         45.3460   59.3860   47.4530 O.2    64  THR64      -0.2866
     25  CB        45.2820   56.4350   48.4650 C.3    64  THR64       0.1770
     26  OG1       45.9630   55.2120   48.7600 O.3    64  THR64      -0.2211
     27  CG2       43.8060   56.1560   48.2820 C.3    64  THR64       0.0375
     28  N         41.5410   58.4770   46.4490 N.3    66  ARG66      -0.1245
     29  CA        40.2250   57.8690   46.5580 C.3    66  ARG66       0.1563
     30  C         39.0370   58.6920   46.0730 C.2    66  ARG66       0.2260
     31  O         38.8230   59.8220   46.5090 O.2    66  ARG66      -0.2867
     32  CB        39.9810   57.4340   48.0000 C.3    66  ARG66       0.0307
     33  CG        38.9770   56.3140   48.1170 C.3    66  ARG66       0.0489
     34  CD        39.5690   55.0250   47.5640 C.3    66  ARG66       0.2205
     35  NE        40.4890   54.3660   48.4940 N.pl3  66  ARG66      -0.0865
     36  CZ        41.4370   53.5130   48.1150 C.cat  66  ARG66       0.5346
     37  NH1       41.6000   53.2320   46.8290 N.pl3  66  ARG66       0.1354
     38  NH2       42.1890   52.9010   49.0170 N.pl3  66  ARG66       0.1354
     39  N         47.6860   53.1700   45.0590 N.3    97  ASP97      -0.1239
     40  CA        46.5640   52.2810   45.2730 C.3    97  ASP97       0.1674
     41  C         45.5380   52.6500   44.2110 C.2    97  ASP97       0.2266
     42  O         45.1740   53.8160   44.0700 O.2    97  ASP97      -0.2867
     43  CB        45.9920   52.5020   46.6820 C.3    97  ASP97       0.1410
     44  CG        44.7100   51.7360   46.9230 C.2    97  ASP97       0.3668
     45  OD1       43.9200   51.5680   45.9630 O.co2  97  ASP97      -0.2456
     46  OD2       44.4780   51.3130   48.0770 O.co2  97  ASP97      -0.2456
     47  N         36.8220   47.8040   48.3870 N.3   125  HIS125     -0.1241
     48  CA        36.2160   48.1660   49.6620 C.3   125  HIS125      0.1621
     49  C         34.7700   47.7220   49.7470 C.2   125  HIS125      0.2264
     50  O         33.9560   48.0910   48.9030 O.2   125  HIS125     -0.2867
     51  CB        36.2750   49.6750   49.8870 C.3   125  HIS125      0.0745
     52  CG        37.6560   50.1980   50.1290 C.ar  125  HIS125      0.0817
     53  ND1       38.6010   50.3040   49.1290 N.ar  125  HIS125     -0.2268
     54  CD2       38.2560   50.6290   51.2640 C.ar  125  HIS125      0.1154
     55  CE1       39.7250   50.7780   49.6400 C.ar  125  HIS125      0.1986
     56  NE2       39.5420   50.9830   50.9330 N.ar  125  HIS125     -0.2212
     57  N         44.4140   44.2310   47.9930 N.3   152  LYS152     -0.1245
     58  CA        43.8730   44.8950   49.1710 C.3   152  LYS152      0.1561
     59  C         42.3620   44.7110   49.2130 C.2   152  LYS152      0.2260
     60  O         41.6480   45.1250   48.3090 O.2   152  LYS152     -0.2867
     61  CB        44.1900   46.3980   49.1850 C.3   152  LYS152      0.0271
     62  CG        43.7050   47.0660   50.4800 C.3   152  LYS152      0.0035
     63  CD        43.7750   48.5880   50.4710 C.3   152  LYS152      0.0206
     64  CE        43.1860   49.1110   51.7760 C.3   152  LYS152      0.1093
     65  NZ        42.5650   50.4700   51.7350 N.3   152  LYS152     -0.1314
     66  N         39.1900   45.3520   51.8370 N.3   154  ALA154     -0.1245
     67  CA        38.6890   45.9060   53.0780 C.3   154  ALA154      0.1562
     68  C         37.1960   45.5920   53.1090 C.2   154  ALA154      0.2260
     69  O         36.4560   45.9690   52.2020 O.2   154  ALA154     -0.2867
     70  CB        38.9250   47.4280   53.1200 C.3   154  ALA154      0.0290
     71  N         41.7890   43.5810   55.7120 N.3   180  LEU180     -0.1245
     72  CA        41.3020   44.2360   56.9110 C.3   180  LEU180      0.1561
     73  C         39.7820   44.2310   56.9820 C.2   180  LEU180      0.2260
     74  O         39.0990   44.2250   55.9620 O.2   180  LEU180     -0.2867
     75  CB        41.8120   45.6830   56.9320 C.3   180  LEU180      0.0270
     76  CG        43.3390   45.8260   56.8760 C.3   180  LEU180      0.0019
     77  CD1       43.7380   47.2630   56.5480 C.3   180  LEU180      0.0001
     78  CD2       43.9170   45.3930   58.2020 C.3   180  LEU180      0.0001
     79  N         36.7610   46.4260   58.6160 N.3   182  MET182     -0.1245
     80  CA        36.4270   47.6920   59.2590 C.3   182  MET182      0.1570
     81  C         35.3950   47.5610   60.3740 C.2   182  MET182      0.2261
     82  O         34.6730   46.5610   60.4610 O.2   182  MET182     -0.2867
     83  CB        35.9200   48.6920   58.2090 C.3   182  MET182      0.0387
     84  CG        36.9130   48.9390   57.0790 C.3   182  MET182      0.0595
     85  SD        36.3440   50.1110   55.8400 S.3   182  MET182     -0.1393
     86  CE        35.2580   49.0740   54.8540 C.3   182  MET182      0.0692
     87  N         42.9400   44.0810   62.4880 N.3   190  ARG190     -0.1245
     88  CA        43.9670   45.1100   62.2910 C.3   190  ARG190      0.1563
     89  C         45.1780   44.8660   63.1930 C.2   190  ARG190      0.2260
     90  O         46.2760   45.3560   62.9330 O.2   190  ARG190     -0.2867
     91  CB        43.3970   46.4960   62.6130 C.3   190  ARG190      0.0307
     92  CG        42.2280   46.9400   61.7260 C.3   190  ARG190      0.0489
     93  CD        41.6220   48.2400   62.2550 C.3   190  ARG190      0.2205
     94  NE        40.5450   48.7480   61.4120 N.pl3 190  ARG190     -0.0865
     95  CZ        40.7240   49.2150   60.1790 C.cat 190  ARG190      0.5346
     96  NH1       41.9420   49.2310   59.6530 N.pl3 190  ARG190      0.1354
     97  NH2       39.6940   49.6800   59.4790 N.pl3 190  ARG190      0.1354
     98  N         46.8890   49.5000   59.0090 N.3   202  PHE202     -0.1241
     99  CA        46.9100   50.9450   59.1490 C.3   202  PHE202      0.1605
    100  C         46.7810   51.3600   60.6100 C.2   202  PHE202      0.2264
    101  O         45.9280   50.8580   61.3430 O.2   202  PHE202     -0.2867
    102  CB        45.7880   51.5900   58.3260 C.3   202  PHE202      0.0534
    103  CG        45.9530   51.4260   56.8400 C.ar  202  PHE202     -0.0203
    104  CD1       45.3690   50.3500   56.1720 C.ar  202  PHE202     -0.0042
    105  CD2       46.6990   52.3500   56.1030 C.ar  202  PHE202     -0.0042
    106  CE1       45.5180   50.1960   54.7870 C.ar  202  PHE202     -0.0003
    107  CE2       46.8590   52.2080   54.7140 C.ar  202  PHE202     -0.0003
    108  CZ        46.2650   51.1270   54.0550 C.ar  202  PHE202     -0.0000
    109  N         41.1580   57.1230   59.0120 N.3   211  SER211     -0.1202
    110  CA        40.7800   57.1360   57.6030 C.3   211  SER211      0.2020
    111  C         39.7470   56.0300   57.3570 C.2   211  SER211      0.2618
    112  O         39.1320   55.9640   56.2950 O.2   211  SER211     -0.2717
    113  CB        42.0070   56.9490   56.7000 C.3   211  SER211      0.2103
    114  OG        42.5900   55.6650   56.8500 O.3   211  SER211     -0.2182
    115  N         39.5620   55.1640   58.3510 N.am  212  ALA212     -0.1979
    116  CA        38.5820   54.0740   58.2650 C.3   212  ALA212      0.1597
    117  C         38.2450   53.5690   59.6700 C.2   212  ALA212      0.2287
    118  O         39.1310   53.4320   60.5120 O.2   212  ALA212     -0.2864
    119  CB        39.1180   52.9290   57.3920 C.3   212  ALA212      0.0319
    120  N         40.3340   51.7480   63.1660 N.3   215  GLN215     -0.1245
    121  CA        41.7860   51.9180   63.1680 C.3   215  GLN215      0.1566
    122  C         42.3440   52.3300   64.5200 C.2   215  GLN215      0.2260
    123  O         41.9350   53.3380   65.0980 O.2   215  GLN215     -0.2867
    124  CB        42.2280   52.9750   62.1550 C.3   215  GLN215      0.0367
    125  CG        42.0330   52.6280   60.7000 C.3   215  GLN215      0.0905
    126  CD        42.4440   53.7760   59.8020 C.2   215  GLN215      0.2608
    127  OE1       42.3520   54.9390   60.1950 O.2   215  GLN215     -0.2717
    128  NE2       42.8810   53.4610   58.5870 N.am  215  GLN215     -0.0878
@<TRIPOS>BOND
     1    42    41    2
     2    41    40    1
     3    39    40    1
     4    40    43    1
     5    45    44   ar
     6    30    31    2
     7    30    29    1
     8    28    29    1
     9    29    32    1
    10    43    44    1
    11    37    36    1
    12    23    22    1
    13    23    24    2
    14    44    46   ar
    15    22    21    1
    16    22    25    1
    17    34    33    1
    18    34    35    1
    19    57    58    1
    20    32    33    1
    21    36    35    2
    22    36    38    1
    23    27    25    1
    24    60    59    2
    25    47    48    1
    26    25    26    1
    27    50    49    2
    28    53    55   ar
    29    53    52   ar
    30    58    61    1
    31    58    59    1
    32    61    62    1
    33    55    56   ar
    34    48    49    1
    35    48    51    1
    36    51    52    1
    37    52    54   ar
    38    12    13    2
    39    12    11    1
    40    63    62    1
    41    63    64    1
    42    56    54   ar
    43    11    10    1
    44    11    14    1
    45     8     7   ar
    46    17    16    1
    47    17    18    2
    48    20    18    1
    49    16    15    1
    50    65    64    1
    51    66    67    1
    52    18    19    1
    53     6     7    1
    54     6     5    1
    55    14    15    1
    56     7     9   ar
    57    69    68    2
    58     3     2    1
    59     3     4    2
    60     2     5    1
    61     2     1    1
    62    67    68    1
    63    67    70    1
    64   108   107   ar
    65   108   106   ar
    66   107   105   ar
    67   106   104   ar
    68    86    85    1
    69    71    72    1
    70    85    84    1
    71    74    73    2
    72   105   103   ar
    73   104   103   ar
    74   112   111    2
    75    77    76    1
    76   113   114    1
    77   113   110    1
    78   103   102    1
    79    76    75    1
    80    76    78    1
    81    72    75    1
    82    72    73    1
    83    84    83    1
    84   111   110    1
    85   111   115   am
    86   119   116    1
    87   110   109    1
    88    83    80    1
    89   116   115    1
    90   116   117    1
    91   102    99    1
    92   128   126   am
    93    79    80    1
    94    98    99    1
    95    99   100    1
    96    80    81    1
    97    97    95    1
    98    96    95    1
    99   117   118    2
   100   126   127    2
   101   126   125    1
   102    95    94    2
   103    81    82    2
   104   100   101    2
   105   125   124    1
   106    94    93    1
   107    92    93    1
   108    92    91    1
   109   124   121    1
   110    88    87    1
   111    88    91    1
   112    88    89    1
   113    90    89    2
   114   120   121    1
   115   121   122    1
   116   122   123    2
