@<TRIPOS>MOLECULE
tmp/2o7rA00.pdb
 125 121 0 0 0
SMALL
GASTEIGER

@<TRIPOS>ATOM
      1  N         51.7360   41.8520   24.8200 N.3    74  GLY74      -0.1210
      2  CA        52.2860   40.5240   24.8860 C.3    74  GLY74       0.1956
      3  C         51.4630   39.5810   25.7740 C.2    74  GLY74       0.2612
      4  O         50.3700   39.9100   26.2150 O.2    74  GLY74      -0.2717
      5  N         52.0620   38.4110   26.0150 N.am   75  GLY75      -0.1942
      6  CA        51.3180   37.3540   26.7710 C.3    75  GLY75       0.2014
      7  C         51.2140   36.0240   26.0320 C.2    75  GLY75       0.2639
      8  O         50.2940   35.2180   26.3680 O.2    75  GLY75      -0.2714
      9  N         52.1310   35.6960   25.1290 N.am   76  GLY76      -0.1939
     10  CA        52.1860   34.3160   24.5870 C.3    76  GLY76       0.2014
     11  C         51.0270   33.9570   23.6840 C.2    76  GLY76       0.2638
     12  O         50.7830   32.7860   23.4340 O.2    76  GLY76      -0.2714
     13  N         50.3090   34.9680   23.1770 N.am   77  PHE77      -0.1973
     14  CA        49.0740   34.8010   22.3610 C.3    77  PHE77       0.1639
     15  C         47.8700   34.2760   23.1780 C.2    77  PHE77       0.2290
     16  O         46.7530   34.2020   22.6320 O.2    77  PHE77      -0.2864
     17  CB        49.2230   33.8970   21.1250 C.3    77  PHE77       0.0560
     18  CG        50.4080   34.2650   20.2550 C.ar   77  PHE77      -0.0200
     19  CD1       50.3160   35.3180   19.3330 C.ar   77  PHE77      -0.0042
     20  CD2       51.6140   33.5660   20.3880 C.ar   77  PHE77      -0.0042
     21  CE1       51.3770   35.6360   18.5200 C.ar   77  PHE77      -0.0003
     22  CE2       52.7080   33.9140   19.5350 C.ar   77  PHE77      -0.0003
     23  CZ        52.5390   34.9450   18.6110 C.ar   77  PHE77      -0.0000
     24  N         46.5820   37.9830   28.8690 N.3    80  PHE80      -0.1241
     25  CA        46.6220   39.4470   29.0040 C.3    80  PHE80       0.1605
     26  C         45.6340   40.1620   28.1040 C.2    80  PHE80       0.2264
     27  O         45.0210   39.5760   27.1860 O.2    80  PHE80      -0.2867
     28  CB        48.0130   40.0180   28.8270 C.3    80  PHE80       0.0534
     29  CG        48.9670   39.6560   29.9120 C.ar   80  PHE80      -0.0203
     30  CD1       49.1610   40.5050   31.0120 C.ar   80  PHE80      -0.0042
     31  CD2       49.6990   38.4850   29.8120 C.ar   80  PHE80      -0.0042
     32  CE1       50.0680   40.1830   32.0300 C.ar   80  PHE80      -0.0003
     33  CE2       50.6150   38.1350   30.8640 C.ar   80  PHE80      -0.0003
     34  CZ        50.7820   38.9960   31.9560 C.ar   80  PHE80      -0.0000
     35  N         50.3520   46.3890   31.0740 N.3    87  PHE87      -0.1241
     36  CA        50.3560   46.9890   29.7190 C.3    87  PHE87       0.1605
     37  C         49.7380   48.3730   29.6820 C.2    87  PHE87       0.2264
     38  O         50.2140   49.2320   28.9090 O.2    87  PHE87      -0.2867
     39  CB        49.7170   46.0290   28.6710 C.3    87  PHE87       0.0534
     40  CG        50.5700   44.8640   28.3780 C.ar   87  PHE87      -0.0203
     41  CD1       51.7620   45.0330   27.6900 C.ar   87  PHE87      -0.0042
     42  CD2       50.2640   43.6140   28.9230 C.ar   87  PHE87      -0.0042
     43  CE1       52.6260   43.9740   27.4530 C.ar   87  PHE87      -0.0003
     44  CE2       51.1180   42.5480   28.7180 C.ar   87  PHE87      -0.0003
     45  CZ        52.3010   42.7310   27.9710 C.ar   87  PHE87      -0.0000
     46  N         54.7500   44.0690   21.6920 N.3   151  GLU151     -0.1231
     47  CA        55.7030   43.4620   22.5520 C.3   151  GLU151      0.1699
     48  C         55.5140   41.9690   22.5680 C.2   151  GLU151      0.2593
     49  O         54.4010   41.4810   22.7650 O.2   151  GLU151     -0.2718
     50  CB        55.5300   44.0730   23.9630 C.3   151  GLU151      0.0402
     51  CG        56.5790   43.5960   24.9940 C.3   151  GLU151      0.1161
     52  CD        56.1570   42.3770   25.8240 C.2   151  GLU151      0.3649
     53  OE1       54.9570   42.0660   25.8900 O.co2 151  GLU151     -0.2457
     54  OE2       57.0840   41.7430   26.4310 O.co2 151  GLU151     -0.2457
     55  N         56.6680   41.2070   22.4110 N.am  152  SER152     -0.1938
     56  CA        56.6460   39.7350   22.6020 C.3   152  SER152      0.2055
     57  C         55.6710   39.1570   21.5940 C.2   152  SER152      0.2642
     58  O         55.7750   39.4070   20.3900 O.2   152  SER152     -0.2714
     59  CB        56.3930   39.4390   24.0650 C.3   152  SER152      0.2130
     60  OG        56.5950   38.0000   24.3040 O.3   152  SER152     -0.2179
     61  N         54.6280   38.3660   22.0230 N.am  153  ALA153     -0.1977
     62  CA        53.6660   37.8530   21.0310 C.3   153  ALA153      0.1597
     63  C         53.0540   39.0000   20.2300 C.2   153  ALA153      0.2287
     64  O         52.7260   38.8360   19.0700 O.2   153  ALA153     -0.2864
     65  CB        52.5400   37.1130   21.8030 C.3   153  ALA153      0.0319
     66  N         58.1210   37.8000   19.5260 N.3   186  GLY186     -0.1225
     67  CA        58.1520   36.3450   19.7670 C.3   186  GLY186      0.1811
     68  C         58.0910   35.5730   18.4780 C.2   186  GLY186      0.2280
     69  O         57.1270   35.6880   17.6710 O.2   186  GLY186     -0.2866
     70  N         61.2150   31.6520   30.7830 N.3   205  LEU205     -0.1245
     71  CA        60.8640   31.0800   29.4620 C.3   205  LEU205      0.1561
     72  C         61.7600   29.9240   29.0540 C.2   205  LEU205      0.2260
     73  O         62.4260   29.9900   28.0050 O.2   205  LEU205     -0.2867
     74  CB        60.7690   32.1570   28.3740 C.3   205  LEU205      0.0270
     75  CG        59.8050   33.3220   28.5650 C.3   205  LEU205      0.0019
     76  CD1       60.0810   34.3100   27.4400 C.3   205  LEU205      0.0001
     77  CD2       58.3350   32.8810   28.5470 C.3   205  LEU205      0.0001
     78  N         58.1390   27.8420   26.0930 N.3   210  LEU210     -0.1245
     79  CA        58.0790   28.3170   24.7220 C.3   210  LEU210      0.1561
     80  C         57.3760   27.3260   23.7940 C.2   210  LEU210      0.2260
     81  O         56.5520   27.7050   22.9800 O.2   210  LEU210     -0.2867
     82  CB        59.4520   28.6440   24.1980 C.3   210  LEU210      0.0270
     83  CG        60.1040   29.8240   24.9450 C.3   210  LEU210      0.0019
     84  CD1       61.5970   29.9890   24.5060 C.3   210  LEU210      0.0001
     85  CD2       59.3410   31.1530   24.7050 C.3   210  LEU210      0.0001
     86  N         53.6460   27.4730   24.4880 N.3   213  ILE213     -0.1231
     87  CA        53.0420   28.6440   23.8460 C.3   213  ILE213      0.1692
     88  C         52.7470   28.4130   22.3700 C.2   213  ILE213      0.2592
     89  O         51.6620   28.7020   21.8710 O.2   213  ILE213     -0.2718
     90  CB        53.9290   29.8970   24.0630 C.3   213  ILE213      0.0266
     91  CG1       53.7940   30.3160   25.5160 C.3   213  ILE213      0.0019
     92  CG2       53.6110   30.9640   23.0170 C.3   213  ILE213      0.0020
     93  CD1       54.9520   31.2790   26.0560 C.3   213  ILE213      0.0001
     94  N         53.7060   27.8880   21.6070 N.am  214  TRP214     -0.1976
     95  CA        53.4800   27.6600   20.2030 C.3   214  TRP214      0.1640
     96  C         52.4320   26.5570   19.9590 C.2   214  TRP214      0.2290
     97  O         51.6620   26.6750   19.0080 O.2   214  TRP214     -0.2864
     98  CB        54.7830   27.3380   19.4090 C.3   214  TRP214      0.0576
     99  CG        55.7160   28.5350   19.4530 C.ar  214  TRP214      0.0006
    100  CD1       56.9140   28.6250   20.1350 C.ar  214  TRP214      0.0946
    101  CD2       55.4620   29.8250   18.8840 C.ar  214  TRP214      0.0152
    102  NE1       57.4690   29.9030   19.9700 N.ar  214  TRP214     -0.2442
    103  CE2       56.5940   30.6410   19.2040 C.ar  214  TRP214      0.0810
    104  CE3       54.4300   30.3590   18.0660 C.ar  214  TRP214      0.0012
    105  CZ2       56.6830   31.9710   18.7810 C.ar  214  TRP214      0.0191
    106  CZ3       54.5490   31.6980   17.5930 C.ar  214  TRP214      0.0001
    107  CH2       55.6790   32.4830   17.9740 C.ar  214  TRP214      0.0015
    108  N         64.6720   34.1550   22.8330 N.3   257  MET257     -0.1245
    109  CA        64.2740   34.4290   21.4150 C.3   257  MET257      0.1570
    110  C         65.1990   35.4190   20.6910 C.2   257  MET257      0.2261
    111  O         64.9420   35.7450   19.5210 O.2   257  MET257     -0.2867
    112  CB        62.8310   34.9880   21.3810 C.3   257  MET257      0.0387
    113  CG        61.8660   33.9190   21.8290 C.3   257  MET257      0.0595
    114  SD        60.1560   34.3870   21.9410 S.3   257  MET257     -0.1393
    115  CE        60.1670   35.6820   23.0620 C.3   257  MET257      0.0692
    116  N         63.7540   38.5630   29.0260 N.3   285  HIS285     -0.1241
    117  CA        62.5810   38.8930   28.2420 C.3   285  HIS285      0.1621
    118  C         61.5610   39.6640   29.1100 C.2   285  HIS285      0.2264
    119  O         61.2600   39.2690   30.2720 O.2   285  HIS285     -0.2867
    120  CB        61.9800   37.6360   27.6900 C.3   285  HIS285      0.0745
    121  CG        60.8060   37.8980   26.7880 C.ar  285  HIS285      0.0817
    122  ND1       60.9380   38.2410   25.4590 N.ar  285  HIS285     -0.2268
    123  CD2       59.4690   37.8830   27.0390 C.ar  285  HIS285      0.1154
    124  CE1       59.7330   38.3850   24.9160 C.ar  285  HIS285      0.1986
    125  NE2       58.8320   38.2050   25.8660 N.ar  285  HIS285     -0.2212
@<TRIPOS>BOND
     1   106   107   ar
     2   106   104   ar
     3    69    68    2
     4   107   105   ar
     5   104   101   ar
     6    68    67    1
     7    21    23   ar
     8    21    19   ar
     9    23    22   ar
    10   105   103   ar
    11   101   103   ar
    12   101    99   ar
    13    97    96    2
    14    64    63    2
    15   103   102   ar
    16    19    18   ar
    17    98    99    1
    18    98    95    1
    19    99   100   ar
    20   111   110    2
    21    66    67    1
    22    22    20   ar
    23    96    95    1
    24   102   100   ar
    25    95    94    1
    26    63    62    1
    27    18    20   ar
    28    18    17    1
    29    58    57    2
    30   110   109    1
    31    62    65    1
    32    62    61    1
    33    17    14    1
    34   112   109    1
    35   112   113    1
    36   109   108    1
    37    57    61   am
    38    57    56    1
    39    94    88   am
    40    46    47    1
    41   113   114    1
    42    89    88    2
    43   114   115    1
    44    14    13    1
    45    14    15    1
    46    88    87    1
    47    55    48   am
    48    55    56    1
    49    47    48    1
    50    47    50    1
    51    48    49    2
    52    56    59    1
    53    16    15    2
    54    81    80    2
    55    92    90    1
    56    13    11   am
    57    12    11    2
    58    11    10    1
    59    80    79    1
    60    87    90    1
    61    87    86    1
    62    50    51    1
    63    90    91    1
    64    59    60    1
    65    82    79    1
    66    82    83    1
    67    84    83    1
    68    10     9    1
    69    85    83    1
    70    79    78    1
    71     1     2    1
    72     2     3    1
    73   124   122   ar
    74   124   125   ar
    75    51    52    1
    76     9     7   am
    77   122   121   ar
    78    91    93    1
    79     3     5   am
    80     3     4    2
    81    52    53   ar
    82    52    54   ar
    83   125   123   ar
    84     5     6    1
    85     7     8    2
    86     7     6    1
    87   121   123   ar
    88   121   120    1
    89    27    26    2
    90    76    75    1
    91    43    41   ar
    92    43    45   ar
    93   120   117    1
    94    41    40   ar
    95    45    44   ar
    96    73    72    2
    97    26    25    1
    98   117   116    1
    99   117   118    1
   100    74    75    1
   101    74    71    1
   102    40    39    1
   103    40    42   ar
   104    77    75    1
   105    39    36    1
   106    44    42   ar
   107    28    25    1
   108    28    29    1
   109    24    25    1
   110    38    37    2
   111    72    71    1
   112   118   119    2
   113    71    70    1
   114    37    36    1
   115    36    35    1
   116    31    29   ar
   117    31    33   ar
   118    29    30   ar
   119    33    34   ar
   120    30    32   ar
   121    34    32   ar
