@<TRIPOS>MOLECULE
tmp/2o7tA00.pdb
 135 125 0 0 0
SMALL
GASTEIGER

@<TRIPOS>ATOM
      1  N         14.3400   24.2200   51.7900 N.3    20  ARG20      -0.1245
      2  CA        14.1060   25.6370   51.9780 C.3    20  ARG20       0.1563
      3  C         12.6430   26.0340   51.9600 C.2    20  ARG20       0.2260
      4  O         12.2900   27.0830   52.4560 O.2    20  ARG20      -0.2867
      5  CB        14.7890   26.3960   50.8570 C.3    20  ARG20       0.0307
      6  CG        16.3030   26.4430   50.9260 C.3    20  ARG20       0.0489
      7  CD        16.7560   26.4630   49.4900 C.3    20  ARG20       0.2205
      8  NE        18.1520   26.6890   49.3190 N.pl3  20  ARG20      -0.0865
      9  CZ        18.8580   26.3260   48.2530 C.cat  20  ARG20       0.5346
     10  NH1       18.3400   25.5790   47.2890 N.pl3  20  ARG20       0.1354
     11  NH2       20.1320   26.6150   48.2310 N.pl3  20  ARG20       0.1354
     12  N         24.7820   17.5310   51.3340 N.3    56  ALA56      -0.1245
     13  CA        25.8380   18.1740   52.1050 C.3    56  ALA56       0.1562
     14  C         27.1010   18.3160   51.2800 C.2    56  ALA56       0.2260
     15  O         27.7320   19.3590   51.2310 O.2    56  ALA56      -0.2867
     16  CB        26.1250   17.3770   53.3410 C.3    56  ALA56       0.0290
     17  N         26.6180   20.9280   48.6190 N.3    59  LEU59      -0.1231
     18  CA        26.6030   22.2680   49.2030 C.3    59  LEU59       0.1693
     19  C         27.9640   22.7210   49.6830 C.2    59  LEU59       0.2592
     20  O         28.2910   23.8820   49.5200 O.2    59  LEU59      -0.2718
     21  CB        25.5750   22.3530   50.3170 C.3    59  LEU59       0.0284
     22  CG        24.1260   22.2070   49.7540 C.3    59  LEU59       0.0019
     23  CD1       23.1870   21.9300   50.8650 C.3    59  LEU59       0.0001
     24  CD2       23.7080   23.4180   48.9510 C.3    59  LEU59       0.0001
     25  N         28.7470   21.8280   50.2970 N.am   60  PHE60      -0.1976
     26  CA        30.1020   22.1890   50.7100 C.3    60  PHE60       0.1639
     27  C         30.9550   22.5460   49.4960 C.2    60  PHE60       0.2290
     28  O         31.7120   23.5140   49.5290 O.2    60  PHE60      -0.2864
     29  CB        30.7750   21.0670   51.5090 C.3    60  PHE60       0.0560
     30  CG        30.4500   21.0770   52.9860 C.ar   60  PHE60      -0.0200
     31  CD1       30.8730   22.1180   53.7940 C.ar   60  PHE60      -0.0042
     32  CD2       29.8600   19.9960   53.5830 C.ar   60  PHE60      -0.0042
     33  CE1       30.6320   22.1090   55.1450 C.ar   60  PHE60      -0.0003
     34  CE2       29.6140   19.9850   54.9350 C.ar   60  PHE60      -0.0003
     35  CZ        30.0000   21.0390   55.7170 C.ar   60  PHE60      -0.0000
     36  N         29.8760   23.8440   46.7080 N.3    62  VAL62      -0.1231
     37  CA        29.4120   25.1700   46.2970 C.3    62  VAL62       0.1692
     38  C         29.9470   26.2630   47.2390 C.2    62  VAL62       0.2591
     39  O         30.4990   27.2670   46.7670 O.2    62  VAL62      -0.2718
     40  CB        27.8460   25.2640   46.2280 C.3    62  VAL62       0.0266
     41  CG1       27.4220   26.6890   45.8520 C.3    62  VAL62       0.0020
     42  CG2       27.2620   24.2380   45.2070 C.3    62  VAL62       0.0020
     43  N         29.8260   26.0640   48.5540 N.am   63  VAL63      -0.1980
     44  CA        30.3830   27.0420   49.5240 C.3    63  VAL63       0.1595
     45  C         31.8750   27.2610   49.2970 C.2    63  VAL63       0.2287
     46  O         32.3490   28.3870   49.3460 O.2    63  VAL63      -0.2864
     47  CB        30.1580   26.6330   51.0130 C.3    63  VAL63       0.0276
     48  CG1       30.9070   27.5720   51.9890 C.3    63  VAL63       0.0022
     49  CG2       28.6760   26.6540   51.3220 C.3    63  VAL63       0.0022
     50  N         32.3850   29.5700   46.4260 N.3    66  LEU66      -0.1245
     51  CA        32.0940   30.9670   46.8110 C.3    66  LEU66       0.1561
     52  C         33.2500   31.5290   47.6490 C.2    66  LEU66       0.2260
     53  O         33.6580   32.6800   47.4650 O.2    66  LEU66      -0.2867
     54  CB        30.7840   31.1450   47.6100 C.3    66  LEU66       0.0270
     55  CG        29.4800   30.4270   47.2400 C.3    66  LEU66       0.0019
     56  CD1       28.3120   31.0850   47.9880 C.3    66  LEU66       0.0001
     57  CD2       29.1810   30.3340   45.7590 C.3    66  LEU66       0.0001
     58  N         25.1560   33.6030   50.9790 N.3    89  LEU89      -0.1245
     59  CA        24.8800   32.4620   51.8710 C.3    89  LEU89       0.1561
     60  C         23.5360   32.6480   52.6070 C.2    89  LEU89       0.2260
     61  O         22.7340   31.7220   52.7490 O.2    89  LEU89      -0.2867
     62  CB        26.0000   32.2900   52.8990 C.3    89  LEU89       0.0270
     63  CG        27.3490   31.8860   52.3400 C.3    89  LEU89       0.0019
     64  CD1       28.3440   31.9850   53.4320 C.3    89  LEU89       0.0001
     65  CD2       27.2650   30.4550   51.7670 C.3    89  LEU89       0.0001
     66  N         20.6360   32.2270   50.1000 N.3    92  ARG92      -0.1245
     67  CA        20.5470   30.8840   49.5470 C.3    92  ARG92       0.1563
     68  C         20.2670   29.8350   50.6200 C.2    92  ARG92       0.2260
     69  O         20.4830   28.6700   50.3870 O.2    92  ARG92      -0.2867
     70  CB        21.8340   30.5230   48.8040 C.3    92  ARG92       0.0307
     71  CG        22.1920   31.5300   47.7150 C.3    92  ARG92       0.0489
     72  CD        21.4910   31.1690   46.5040 C.3    92  ARG92       0.2205
     73  NE        21.3850   32.2250   45.4990 N.pl3  92  ARG92      -0.0865
     74  CZ        21.1850   31.9630   44.2050 C.cat  92  ARG92       0.5346
     75  NH1       21.1520   30.6870   43.7820 N.pl3  92  ARG92       0.1354
     76  NH2       21.0580   32.9540   43.3270 N.pl3  92  ARG92       0.1354
     77  N         21.5730   29.1270   53.8800 N.3    94  LEU94      -0.1245
     78  CA        22.4940   28.5360   54.8610 C.3    94  LEU94       0.1561
     79  C         21.7270   28.0930   56.1360 C.2    94  LEU94       0.2260
     80  O         21.9530   27.0110   56.7010 O.2    94  LEU94      -0.2867
     81  CB        23.5170   29.6150   55.2590 C.3    94  LEU94       0.0270
     82  CG        24.5200   29.2700   56.3610 C.3    94  LEU94       0.0019
     83  CD1       25.5280   28.2400   55.8860 C.3    94  LEU94       0.0001
     84  CD2       25.2190   30.5440   56.8590 C.3    94  LEU94       0.0001
     85  N         19.3370   25.0150   55.3970 N.3    97  LEU97      -0.1231
     86  CA        20.0610   23.8110   54.9640 C.3    97  LEU97       0.1693
     87  C         20.9230   23.1510   56.0600 C.2    97  LEU97       0.2591
     88  O         20.9870   21.9200   56.1620 O.2    97  LEU97      -0.2718
     89  CB        20.8870   24.1420   53.7140 C.3    97  LEU97       0.0284
     90  CG        19.9920   24.4330   52.4780 C.3    97  LEU97       0.0019
     91  CD1       20.7500   25.0250   51.3590 C.3    97  LEU97       0.0001
     92  CD2       19.2720   23.1620   52.0110 C.3    97  LEU97       0.0001
     93  N         21.5780   23.9480   56.8950 N.am   98  VAL98      -0.1980
     94  CA        22.4190   23.3580   57.9600 C.3    98  VAL98       0.1595
     95  C         21.6000   22.5160   58.9350 C.2    98  VAL98       0.2287
     96  O         21.9100   21.3380   59.1520 O.2    98  VAL98      -0.2864
     97  CB        23.2980   24.4330   58.6530 C.3    98  VAL98       0.0276
     98  CG1       24.0100   23.8610   59.8600 C.3    98  VAL98       0.0022
     99  CG2       24.3020   24.9620   57.6810 C.3    98  VAL98       0.0022
    100  N         20.2340   19.2970   57.3240 N.3   101  LEU101     -0.1231
    101  CA        21.2100   18.2530   56.9830 C.3   101  LEU101      0.1693
    102  C         22.2190   17.8300   58.0380 C.2   101  LEU101      0.2592
    103  O         22.8570   16.7930   57.8830 O.2   101  LEU101     -0.2718
    104  CB        21.9990   18.6880   55.7510 C.3   101  LEU101      0.0284
    105  CG        21.1740   18.9790   54.5050 C.3   101  LEU101      0.0019
    106  CD1       22.0610   19.6010   53.4330 C.3   101  LEU101      0.0001
    107  CD2       20.4990   17.6840   54.0140 C.3   101  LEU101      0.0001
    108  N         22.3990   18.6050   59.0920 N.am  102  ALA102     -0.1966
    109  CA        23.4140   18.2350   60.0600 C.3   102  ALA102      0.1713
    110  C         22.9930   17.0460   60.9200 C.2   102  ALA102      0.2458
    111  O         21.8490   16.9770   61.3840 O.2   102  ALA102     -0.2730
    112  CB        23.7840   19.4100   60.9350 C.3   102  ALA102      0.0333
    113  N         23.9230   16.0940   61.1300 N.am  103  PRO103     -0.2727
    114  CA        23.6410   15.0190   62.0510 C.3   103  PRO103      0.1402
    115  C         23.8180   15.5650   63.4870 C.2   103  PRO103      0.2269
    116  O         24.3100   16.6900   63.6360 O.2   103  PRO103     -0.2865
    117  CB        24.7020   13.9720   61.7130 C.3   103  PRO103      0.0296
    118  CG        25.7120   14.6480   60.8470 C.3   103  PRO103      0.0237
    119  CD        25.2740   16.0170   60.5500 C.3   103  PRO103      0.0939
    120  N         28.9150   16.3770   64.3230 N.3   106  LEU106     -0.1245
    121  CA        29.6250   16.5400   63.0710 C.3   106  LEU106      0.1561
    122  C         30.5440   15.3460   62.8190 C.2   106  LEU106      0.2260
    123  O         31.0160   15.1700   61.6950 O.2   106  LEU106     -0.2867
    124  CB        30.4010   17.8620   63.0300 C.3   106  LEU106      0.0270
    125  CG        29.5010   19.0960   62.9820 C.3   106  LEU106      0.0019
    126  CD1       30.3040   20.3680   63.0210 C.3   106  LEU106      0.0001
    127  CD2       28.6110   19.0710   61.7410 C.3   106  LEU106      0.0001
    128  N         29.4470   12.8160   60.0640 N.3   109  LEU109     -0.1245
    129  CA        29.5990   13.0810   58.6450 C.3   109  LEU109      0.1561
    130  C         30.5240   12.0050   58.0510 C.2   109  LEU109      0.2260
    131  O         31.5050   11.6230   58.6760 O.2   109  LEU109     -0.2867
    132  CB        30.1820   14.4650   58.3980 C.3   109  LEU109      0.0270
    133  CG        29.3720   15.6840   58.8010 C.3   109  LEU109      0.0019
    134  CD1       30.1810   16.9580   58.5030 C.3   109  LEU109      0.0001
    135  CD2       28.0230   15.6980   58.1050 C.3   109  LEU109      0.0001
@<TRIPOS>BOND
     1    76    74    1
     2    75    74    1
     3    74    73    2
     4    42    40    1
     5    73    72    1
     6    57    55    1
     7    41    40    1
     8    40    37    1
     9    37    36    1
    10    37    38    1
    11    50    51    1
    12    72    71    1
    13    39    38    2
    14    51    54    1
    15    51    52    1
    16    38    43   am
    17    55    54    1
    18    55    56    1
    19    10     9    1
    20    53    52    2
    21    71    70    1
    22    11     9    1
    23     9     8    2
    24    43    44    1
    25    17    18    1
    26    70    67    1
    27    24    22    1
    28    18    19    1
    29    18    21    1
    30    45    46    2
    31    45    44    1
    32     8     7    1
    33     7     6    1
    34    27    28    2
    35    27    26    1
    36    20    19    2
    37    44    47    1
    38    67    66    1
    39    67    68    1
    40    19    25   am
    41    22    21    1
    42    22    23    1
    43    25    26    1
    44    69    68    2
    45    26    29    1
    46     5     6    1
    47     5     2    1
    48    58    59    1
    49    47    49    1
    50    47    48    1
    51    15    14    2
    52    14    13    1
    53    12    13    1
    54    91    90    1
    55    29    30    1
    56    65    63    1
    57     1     2    1
    58    59    60    1
    59    59    62    1
    60     3     2    1
    61     3     4    2
    62    92    90    1
    63    13    16    1
    64    63    62    1
    65    63    64    1
    66    90    89    1
    67    60    61    2
    68    30    32   ar
    69    30    31   ar
    70   106   105    1
    71    32    34   ar
    72    89    86    1
    73    31    33   ar
    74    77    78    1
    75   107   105    1
    76   105   104    1
    77    78    81    1
    78    78    79    1
    79    34    35   ar
    80    86    85    1
    81    86    87    1
    82    33    35   ar
    83    81    82    1
    84   104   101    1
    85    83    82    1
    86    87    88    2
    87    87    93   am
    88    79    80    2
    89    82    84    1
    90    93    94    1
    91   101   100    1
    92   101   102    1
    93    99    97    1
    94   103   102    2
    95    94    97    1
    96    94    95    1
    97   102   108   am
    98   130   129    1
    99   130   131    2
   100   135   133    1
   101   132   129    1
   102   132   133    1
   103   134   133    1
   104   129   128    1
   105    97    98    1
   106    95    96    2
   107   108   109    1
   108   109   110    1
   109   109   112    1
   110   119   118    1
   111   119   113    1
   112   118   117    1
   113   110   113   am
   114   110   111    2
   115   113   114    1
   116   123   122    2
   117   117   114    1
   118   127   125    1
   119   114   115    1
   120   122   121    1
   121   125   126    1
   122   125   124    1
   123   124   121    1
   124   121   120    1
   125   115   116    2
