@<TRIPOS>MOLECULE
tmp/2o7tA01.pdb
 150 139 0 0 0
SMALL
GASTEIGER

@<TRIPOS>ATOM
      1  N         28.7470   21.8280   50.2970 N.3    60  PHE60      -0.1241
      2  CA        30.1020   22.1890   50.7100 C.3    60  PHE60       0.1605
      3  C         30.9550   22.5460   49.4960 C.2    60  PHE60       0.2264
      4  O         31.7120   23.5140   49.5290 O.2    60  PHE60      -0.2867
      5  CB        30.7750   21.0670   51.5090 C.3    60  PHE60       0.0534
      6  CG        30.4500   21.0770   52.9860 C.ar   60  PHE60      -0.0203
      7  CD1       30.8730   22.1180   53.7940 C.ar   60  PHE60      -0.0042
      8  CD2       29.8600   19.9960   53.5830 C.ar   60  PHE60      -0.0042
      9  CE1       30.6320   22.1090   55.1450 C.ar   60  PHE60      -0.0003
     10  CE2       29.6140   19.9850   54.9350 C.ar   60  PHE60      -0.0003
     11  CZ        30.0000   21.0390   55.7170 C.ar   60  PHE60      -0.0000
     12  N         29.8260   26.0640   48.5540 N.3    63  VAL63      -0.1245
     13  CA        30.3830   27.0420   49.5240 C.3    63  VAL63       0.1561
     14  C         31.8750   27.2610   49.2970 C.2    63  VAL63       0.2260
     15  O         32.3490   28.3870   49.3460 O.2    63  VAL63      -0.2867
     16  CB        30.1580   26.6330   51.0130 C.3    63  VAL63       0.0252
     17  CG1       30.9070   27.5720   51.9890 C.3    63  VAL63       0.0019
     18  CG2       28.6760   26.6540   51.3220 C.3    63  VAL63       0.0019
     19  N         33.7690   30.7280   48.5840 N.3    67  GLN67      -0.1245
     20  CA        34.9180   31.1440   49.3960 C.3    67  GLN67       0.1566
     21  C         36.1470   31.4470   48.5460 C.2    67  GLN67       0.2260
     22  O         36.8230   32.4050   48.7610 O.2    67  GLN67      -0.2867
     23  CB        35.2660   30.0760   50.4260 C.3    67  GLN67       0.0367
     24  CG        34.2730   29.9430   51.5360 C.3    67  GLN67       0.0905
     25  CD        34.6210   28.8350   52.4740 C.2    67  GLN67       0.2608
     26  OE1       35.0180   27.7590   52.0450 O.2    67  GLN67      -0.2717
     27  NE2       34.4370   29.0730   53.7740 N.am   67  GLN67      -0.0878
     28  N         29.3510   38.1140   49.5580 N.3    85  PHE85      -0.1241
     29  CA        29.5800   36.7580   50.0280 C.3    85  PHE85       0.1605
     30  C         28.5600   36.3670   51.1290 C.2    85  PHE85       0.2264
     31  O         27.9700   35.2840   51.0960 O.2    85  PHE85      -0.2867
     32  CB        31.0110   36.6120   50.5560 C.3    85  PHE85       0.0534
     33  CG        31.2740   35.3050   51.1980 C.ar   85  PHE85      -0.0203
     34  CD1       31.4650   34.1690   50.4280 C.ar   85  PHE85      -0.0042
     35  CD2       31.2620   35.1800   52.5860 C.ar   85  PHE85      -0.0042
     36  CE1       31.6730   32.9220   51.0310 C.ar   85  PHE85      -0.0003
     37  CE2       31.4650   33.9510   53.2000 C.ar   85  PHE85      -0.0003
     38  CZ        31.6720   32.8160   52.4380 C.ar   85  PHE85      -0.0000
     39  N         25.1560   33.6030   50.9790 N.3    89  LEU89      -0.1245
     40  CA        24.8800   32.4620   51.8710 C.3    89  LEU89       0.1561
     41  C         23.5360   32.6480   52.6070 C.2    89  LEU89       0.2260
     42  O         22.7340   31.7220   52.7490 O.2    89  LEU89      -0.2867
     43  CB        26.0000   32.2900   52.8990 C.3    89  LEU89       0.0270
     44  CG        27.3490   31.8860   52.3400 C.3    89  LEU89       0.0019
     45  CD1       28.3440   31.9850   53.4320 C.3    89  LEU89       0.0001
     46  CD2       27.2650   30.4550   51.7670 C.3    89  LEU89       0.0001
     47  N         21.5730   29.1270   53.8800 N.3    94  LEU94      -0.1245
     48  CA        22.4940   28.5360   54.8610 C.3    94  LEU94       0.1561
     49  C         21.7270   28.0930   56.1360 C.2    94  LEU94       0.2260
     50  O         21.9530   27.0110   56.7010 O.2    94  LEU94      -0.2867
     51  CB        23.5170   29.6150   55.2590 C.3    94  LEU94       0.0270
     52  CG        24.5200   29.2700   56.3610 C.3    94  LEU94       0.0019
     53  CD1       25.5280   28.2400   55.8860 C.3    94  LEU94       0.0001
     54  CD2       25.2190   30.5440   56.8590 C.3    94  LEU94       0.0001
     55  N         21.5780   23.9480   56.8950 N.3    98  VAL98      -0.1245
     56  CA        22.4190   23.3580   57.9600 C.3    98  VAL98       0.1561
     57  C         21.6000   22.5160   58.9350 C.2    98  VAL98       0.2260
     58  O         21.9100   21.3380   59.1520 O.2    98  VAL98      -0.2867
     59  CB        23.2980   24.4330   58.6530 C.3    98  VAL98       0.0252
     60  CG1       24.0100   23.8610   59.8600 C.3    98  VAL98       0.0019
     61  CG2       24.3020   24.9620   57.6810 C.3    98  VAL98       0.0019
     62  N         28.9150   16.3770   64.3230 N.3   106  LEU106     -0.1245
     63  CA        29.6250   16.5400   63.0710 C.3   106  LEU106      0.1561
     64  C         30.5440   15.3460   62.8190 C.2   106  LEU106      0.2260
     65  O         31.0160   15.1700   61.6950 O.2   106  LEU106     -0.2867
     66  CB        30.4010   17.8620   63.0300 C.3   106  LEU106      0.0270
     67  CG        29.5010   19.0960   62.9820 C.3   106  LEU106      0.0019
     68  CD1       30.3040   20.3680   63.0210 C.3   106  LEU106      0.0001
     69  CD2       28.6110   19.0710   61.7410 C.3   106  LEU106      0.0001
     70  N         34.1780   19.8550   55.1630 N.3   117  ARG117     -0.1245
     71  CA        33.9310   20.7440   56.2800 C.3   117  ARG117      0.1563
     72  C         35.2060   21.3860   56.7580 C.2   117  ARG117      0.2260
     73  O         35.2120   22.5850   57.0800 O.2   117  ARG117     -0.2867
     74  CB        33.3220   19.9840   57.4450 C.3   117  ARG117      0.0307
     75  CG        32.9600   20.8750   58.6130 C.3   117  ARG117      0.0489
     76  CD        32.5710   20.0510   59.7880 C.3   117  ARG117      0.2205
     77  NE        33.7330   19.3700   60.3440 N.pl3 117  ARG117     -0.0865
     78  CZ        34.3530   19.7160   61.4650 C.cat 117  ARG117      0.5346
     79  NH1       33.9330   20.7390   62.2090 N.pl3 117  ARG117      0.1354
     80  NH2       35.4100   19.0150   61.8520 N.pl3 117  ARG117      0.1354
     81  N         36.3280   24.1050   54.4790 N.3   120  THR120     -0.1203
     82  CA        35.4160   25.2280   54.6300 C.3   120  THR120      0.1994
     83  C         35.7910   26.0670   55.8540 C.2   120  THR120      0.2617
     84  O         35.7830   27.3090   55.7950 O.2   120  THR120     -0.2717
     85  CB        33.9510   24.7320   54.6720 C.3   120  THR120      0.1784
     86  OG1       33.6470   23.9750   53.4760 O.3   120  THR120     -0.2211
     87  CG2       33.0100   25.8820   54.7610 C.3   120  THR120      0.0376
     88  N         36.1660   25.4010   56.9460 N.am  121  GLU121     -0.1979
     89  CA        36.5770   26.0910   58.1530 C.3   121  GLU121      0.1602
     90  C         37.8860   26.8170   57.9600 C.2   121  GLU121      0.2287
     91  O         38.0560   27.9250   58.4400 O.2   121  GLU121     -0.2864
     92  CB        36.6550   25.1370   59.3480 C.3   121  GLU121      0.0415
     93  CG        35.2910   24.5780   59.7150 C.3   121  GLU121      0.1163
     94  CD        35.2890   23.7730   61.0170 C.2   121  GLU121      0.3649
     95  OE1       35.7240   24.3260   62.0580 O.co2 121  GLU121     -0.2457
     96  OE2       34.8140   22.6080   60.9980 O.co2 121  GLU121     -0.2457
     97  N         37.2680   29.9150   55.8540 N.3   124  THR124     -0.1218
     98  CA        36.5660   30.9260   56.6380 C.3   124  THR124      0.1862
     99  C         37.5270   31.7880   57.4640 C.2   124  THR124      0.2287
    100  O         37.3470   33.0190   57.5770 O.2   124  THR124     -0.2866
    101  CB        35.5460   30.2930   57.5700 C.3   124  THR124      0.1770
    102  OG1       34.5260   29.6610   56.8100 O.3   124  THR124     -0.2211
    103  CG2       34.8740   31.3600   58.4380 C.3   124  THR124      0.0375
    104  N         34.9300   31.0480   64.4280 N.3   144  GLY144     -0.1225
    105  CA        33.8340   30.1480   64.7980 C.3   144  GLY144      0.1811
    106  C         32.6190   30.9000   65.3030 C.2   144  GLY144      0.2280
    107  O         31.4850   30.5030   65.0880 O.2   144  GLY144     -0.2866
    108  N         31.7940   33.8730   64.2350 N.3   146  TYR146     -0.1227
    109  CA        31.2180   34.4010   63.0030 C.3   146  TYR146      0.1736
    110  C         30.3670   33.3560   62.2840 C.2   146  TYR146      0.2595
    111  O         29.2670   33.6570   61.8300 O.2   146  TYR146     -0.2718
    112  CB        32.3070   34.9570   62.0730 C.3   146  TYR146      0.0548
    113  CG        31.8770   34.9760   60.6310 C.ar  146  TYR146     -0.0200
    114  CD1       31.0010   35.9560   60.1430 C.ar  146  TYR146     -0.0009
    115  CD2       32.3400   34.0040   59.7340 C.ar  146  TYR146     -0.0009
    116  CE1       30.6040   35.9530   58.8330 C.ar  146  TYR146      0.0417
    117  CE2       31.9650   34.0250   58.4110 C.ar  146  TYR146      0.0417
    118  CZ        31.0990   34.9890   57.9730 C.ar  146  TYR146      0.1957
    119  OH        30.7170   34.9630   56.6770 O.3   146  TYR146     -0.2866
    120  N         30.8720   32.1340   62.1640 N.am  147  ILE147     -0.1966
    121  CA        30.1440   31.0560   61.4690 C.3   147  ILE147      0.1727
    122  C         28.8430   30.7240   62.1510 C.2   147  ILE147      0.2616
    123  O         27.7890   30.6400   61.5020 O.2   147  ILE147     -0.2715
    124  CB        30.9640   29.7410   61.4300 C.3   147  ILE147      0.0290
    125  CG1       32.1780   29.8840   60.5140 C.3   147  ILE147      0.0022
    126  CG2       30.1220   28.5940   60.9320 C.3   147  ILE147      0.0023
    127  CD1       33.2860   28.8580   60.8300 C.3   147  ILE147      0.0001
    128  N         28.9190   30.4880   63.4530 N.am  148  VAL148     -0.1977
    129  CA        27.7210   30.1230   64.2420 C.3   148  VAL148      0.1596
    130  C         26.7010   31.2600   64.1730 C.2   148  VAL148      0.2287
    131  O         25.4900   31.0130   64.0460 O.2   148  VAL148     -0.2864
    132  CB        28.1270   29.7720   65.6900 C.3   148  VAL148      0.0276
    133  CG1       26.9270   29.6800   66.6510 C.3   148  VAL148      0.0022
    134  CG2       28.9020   28.4680   65.6900 C.3   148  VAL148      0.0022
    135  N         26.3600   33.5570   61.7160 N.3   150  LEU150     -0.1231
    136  CA        25.7940   33.5780   60.3830 C.3   150  LEU150      0.1693
    137  C         24.7220   32.4850   60.1920 C.2   150  LEU150      0.2591
    138  O         23.6570   32.6970   59.5870 O.2   150  LEU150     -0.2718
    139  CB        26.9090   33.4040   59.3470 C.3   150  LEU150      0.0284
    140  CG        26.4500   33.6390   57.9150 C.3   150  LEU150      0.0019
    141  CD1       25.9910   35.0780   57.7220 C.3   150  LEU150      0.0001
    142  CD2       27.5660   33.3060   56.9260 C.3   150  LEU150      0.0001
    143  N         25.0080   31.3020   60.6900 N.am  151  ILE151     -0.1980
    144  CA        24.0640   30.1980   60.5990 C.3   151  ILE151      0.1595
    145  C         22.8200   30.5310   61.4080 C.2   151  ILE151      0.2287
    146  O         21.7000   30.3140   60.9590 O.2   151  ILE151     -0.2864
    147  CB        24.7270   28.8620   61.0720 C.3   151  ILE151      0.0276
    148  CG1       25.7310   28.3900   60.0120 C.3   151  ILE151      0.0022
    149  CG2       23.7010   27.7530   61.2880 C.3   151  ILE151      0.0022
    150  CD1       26.6570   27.3240   60.5300 C.3   151  ILE151      0.0001
@<TRIPOS>BOND
     1    21    22    2
     2    21    20    1
     3    12    13    1
     4    19    20    1
     5    14    15    2
     6    14    13    1
     7    20    23    1
     8     3     4    2
     9     3     2    1
    10    13    16    1
    11    28    29    1
    12    29    32    1
    13    29    30    1
    14     1     2    1
    15    23    24    1
    16    34    36   ar
    17    34    33   ar
    18    32    33    1
    19     2     5    1
    20    39    40    1
    21    16    18    1
    22    16    17    1
    23    36    38   ar
    24    31    30    2
    25    33    35   ar
    26     5     6    1
    27    24    25    1
    28    46    44    1
    29    40    41    1
    30    40    43    1
    31    26    25    2
    32    44    43    1
    33    44    45    1
    34    38    37   ar
    35    25    27   am
    36    35    37   ar
    37    41    42    2
    38     6     8   ar
    39     6     7   ar
    40    86    85    1
    41     8    10   ar
    42     7     9   ar
    43    47    48    1
    44    81    82    1
    45    82    85    1
    46    82    83    1
    47    85    87    1
    48    48    51    1
    49    48    49    1
    50    10    11   ar
    51     9    11   ar
    52    70    71    1
    53    51    52    1
    54    84    83    2
    55    97    98    1
    56    83    88   am
    57    53    52    1
    58    49    50    2
    59    71    72    1
    60    71    74    1
    61    52    54    1
    62    98    99    1
    63    98   101    1
    64   119   118    1
    65    72    73    2
    66   102   101    1
    67    55    56    1
    68   142   140    1
    69    88    89    1
    70    74    75    1
    71    99   100    2
    72   101   103    1
    73    61    59    1
    74   141   140    1
    75   140   139    1
    76    90    89    1
    77    90    91    2
    78    56    59    1
    79    56    57    1
    80   118   117   ar
    81   118   116   ar
    82    89    92    1
    83   117   115   ar
    84    75    76    1
    85    59    60    1
    86   116   114   ar
    87    57    58    2
    88   139   136    1
    89    92    93    1
    90   138   137    2
    91    93    94    1
    92   115   113   ar
    93    76    77    1
    94   148   150    1
    95   148   147    1
    96   114   113   ar
    97   137   136    1
    98   137   143   am
    99    77    78    2
   100   136   135    1
   101   125   127    1
   102   125   124    1
   103   144   143    1
   104   144   147    1
   105   144   145    1
   106   113   112    1
   107   126   124    1
   108   146   145    2
   109    96    94   ar
   110    94    95   ar
   111   147   149    1
   112   124   121    1
   113    78    80    1
   114    78    79    1
   115   121   122    1
   116   121   120    1
   117   123   122    2
   118    65    64    2
   119    69    67    1
   120   111   110    2
   121   112   109    1
   122   122   128   am
   123   120   110   am
   124   110   109    1
   125    64    63    1
   126    67    68    1
   127    67    66    1
   128   109   108    1
   129    66    63    1
   130    63    62    1
   131   128   129    1
   132   131   130    2
   133   130   129    1
   134   129   132    1
   135   104   105    1
   136   105   106    1
   137   107   106    2
   138   132   134    1
   139   132   133    1
