@<TRIPOS>MOLECULE
tmp/2o7vA00.pdb
 109 104 0 0 0
SMALL
GASTEIGER

@<TRIPOS>ATOM
      1  N         53.3570   30.2520   34.3700 N.3     5  LEU5       -0.1245
      2  CA        52.1360   30.8350   33.7340 C.3     5  LEU5        0.1561
      3  C         50.9470   30.6540   34.6600 C.2     5  LEU5        0.2260
      4  O         50.8190   29.6070   35.2850 O.2     5  LEU5       -0.2867
      5  CB        51.8220   30.2270   32.3560 C.3     5  LEU5        0.0270
      6  CG        52.9050   30.3530   31.2850 C.3     5  LEU5        0.0019
      7  CD1       52.8700   29.1980   30.3480 C.3     5  LEU5        0.0001
      8  CD2       52.8800   31.6770   30.5180 C.3     5  LEU5        0.0001
      9  N         52.0950   38.3310   26.2030 N.3    75  GLY75      -0.1210
     10  CA        51.3540   37.3540   26.9950 C.3    75  GLY75       0.1956
     11  C         51.2280   35.9750   26.3570 C.2    75  GLY75       0.2612
     12  O         50.3080   35.2500   26.6640 O.2    75  GLY75      -0.2717
     13  N         52.1430   35.6090   25.4710 N.am   76  GLY76      -0.1942
     14  CA        52.0740   34.3150   24.8000 C.3    76  GLY76       0.2014
     15  C         50.8650   33.9830   23.9340 C.2    76  GLY76       0.2638
     16  O         50.6630   32.8070   23.5930 O.2    76  GLY76      -0.2714
     17  N         50.0720   34.9950   23.5710 N.am   77  PHE77      -0.1973
     18  CA        48.9160   34.8830   22.6610 C.3    77  PHE77       0.1639
     19  C         47.6910   34.4090   23.4300 C.2    77  PHE77       0.2290
     20  O         46.5840   34.3980   22.9060 O.2    77  PHE77      -0.2864
     21  CB        49.1530   33.9410   21.4890 C.3    77  PHE77       0.0560
     22  CG        50.3210   34.3050   20.6300 C.ar   77  PHE77      -0.0200
     23  CD1       50.2050   35.3070   19.6470 C.ar   77  PHE77      -0.0042
     24  CD2       51.5430   33.5970   20.7440 C.ar   77  PHE77      -0.0042
     25  CE1       51.2840   35.6240   18.7920 C.ar   77  PHE77      -0.0003
     26  CE2       52.6270   33.9210   19.8970 C.ar   77  PHE77      -0.0003
     27  CZ        52.4840   34.9530   18.9180 C.ar   77  PHE77      -0.0000
     28  N         46.5300   38.0710   29.0540 N.3    80  PHE80      -0.1241
     29  CA        46.5380   39.5610   29.1750 C.3    80  PHE80       0.1605
     30  C         45.5330   40.3020   28.3000 C.2    80  PHE80       0.2264
     31  O         44.8190   39.7020   27.4780 O.2    80  PHE80      -0.2867
     32  CB        47.9510   40.1890   29.0200 C.3    80  PHE80       0.0534
     33  CG        48.9280   39.7890   30.1160 C.ar   80  PHE80      -0.0203
     34  CD1       49.1250   40.6000   31.2180 C.ar   80  PHE80      -0.0042
     35  CD2       49.6550   38.5730   30.0240 C.ar   80  PHE80      -0.0042
     36  CE1       50.0600   40.2040   32.2480 C.ar   80  PHE80      -0.0003
     37  CE2       50.5440   38.1820   31.0220 C.ar   80  PHE80      -0.0003
     38  CZ        50.7400   38.9910   32.1450 C.ar   80  PHE80      -0.0000
     39  N         56.5530   41.3180   22.6810 N.3   152  SER152     -0.1202
     40  CA        56.5290   39.8620   22.7580 C.3   152  SER152      0.2020
     41  C         55.6390   39.2670   21.6720 C.2   152  SER152      0.2618
     42  O         55.8860   39.4550   20.4810 O.2   152  SER152     -0.2717
     43  CB        56.0520   39.4060   24.1380 C.3   152  SER152      0.2103
     44  OG        56.6650   38.1840   24.5120 O.3   152  SER152     -0.2182
     45  N         54.6020   38.5490   22.0920 N.am  153  ALA153     -0.1979
     46  CA        53.6030   38.0310   21.1640 C.3   153  ALA153      0.1597
     47  C         52.9500   39.1580   20.3720 C.2   153  ALA153      0.2287
     48  O         52.7430   39.0410   19.1640 O.2   153  ALA153     -0.2864
     49  CB        52.5510   37.2270   21.9130 C.3   153  ALA153      0.0319
     50  N         58.0450   37.9120   19.8460 N.3   186  GLY186     -0.1225
     51  CA        58.0830   36.5100   20.2290 C.3   186  GLY186      0.1811
     52  C         58.0640   35.5290   19.0490 C.2   186  GLY186      0.2280
     53  O         57.0880   35.4540   18.2780 O.2   186  GLY186     -0.2866
     54  N         60.9920   32.2390   31.1890 N.3   205  LEU205     -0.1245
     55  CA        60.6900   31.5210   29.9420 C.3   205  LEU205      0.1561
     56  C         61.4760   30.1940   29.6610 C.2   205  LEU205      0.2260
     57  O         62.1960   30.0730   28.6470 O.2   205  LEU205     -0.2867
     58  CB        60.7770   32.5040   28.7570 C.3   205  LEU205      0.0270
     59  CG        59.7040   33.6090   28.7020 C.3   205  LEU205      0.0019
     60  CD1       59.7890   34.3880   27.3810 C.3   205  LEU205      0.0001
     61  CD2       58.2800   33.0310   28.9000 C.3   205  LEU205      0.0001
     62  N         57.5360   27.6760   26.7090 N.3   210  LEU210     -0.1245
     63  CA        57.5040   28.2030   25.3320 C.3   210  LEU210      0.1561
     64  C         57.0240   27.2170   24.3190 C.2   210  LEU210      0.2260
     65  O         56.2930   27.5710   23.4040 O.2   210  LEU210     -0.2867
     66  CB        58.8920   28.7130   24.9180 C.3   210  LEU210      0.0270
     67  CG        59.3740   30.0040   25.6410 C.3   210  LEU210      0.0019
     68  CD1       60.8180   30.2730   25.3600 C.3   210  LEU210      0.0001
     69  CD2       58.5330   31.1760   25.2540 C.3   210  LEU210      0.0001
     70  N         53.2880   27.4410   24.9940 N.3   213  ILE213     -0.1231
     71  CA        52.8000   28.6590   24.2920 C.3   213  ILE213      0.1692
     72  C         52.5390   28.4030   22.8240 C.2   213  ILE213      0.2592
     73  O         51.4150   28.5760   22.3540 O.2   213  ILE213     -0.2718
     74  CB        53.7970   29.8760   24.5300 C.3   213  ILE213      0.0266
     75  CG1       53.6340   30.3800   25.9590 C.3   213  ILE213      0.0019
     76  CG2       53.6870   30.9800   23.4570 C.3   213  ILE213      0.0020
     77  CD1       54.8190   31.2340   26.4900 C.3   213  ILE213      0.0001
     78  N         53.5400   27.9570   22.0910 N.am  214  TRP214     -0.1976
     79  CA        53.3600   27.6720   20.6530 C.3   214  TRP214      0.1640
     80  C         52.3790   26.5260   20.3320 C.2   214  TRP214      0.2290
     81  O         51.8170   26.4590   19.2260 O.2   214  TRP214     -0.2864
     82  CB        54.7240   27.3710   20.0110 C.3   214  TRP214      0.0576
     83  CG        55.5610   28.5610   19.9650 C.ar  214  TRP214      0.0006
     84  CD1       56.7410   28.7560   20.6220 C.ar  214  TRP214      0.0946
     85  CD2       55.2600   29.8000   19.2940 C.ar  214  TRP214      0.0152
     86  NE1       57.2160   30.0150   20.3720 N.ar  214  TRP214     -0.2442
     87  CE2       56.3360   30.6820   19.5590 C.ar  214  TRP214      0.0810
     88  CE3       54.1980   30.2420   18.4630 C.ar  214  TRP214      0.0012
     89  CZ2       56.3860   31.9820   19.0380 C.ar  214  TRP214      0.0191
     90  CZ3       54.2550   31.5390   17.9380 C.ar  214  TRP214      0.0001
     91  CH2       55.3440   32.3840   18.2230 C.ar  214  TRP214      0.0015
     92  N         64.6400   34.1840   23.4140 N.3   257  MET257     -0.1245
     93  CA        64.1670   34.5120   22.1000 C.3   257  MET257      0.1570
     94  C         65.1430   35.3820   21.3640 C.2   257  MET257      0.2261
     95  O         64.9410   35.6440   20.1680 O.2   257  MET257     -0.2867
     96  CB        62.7550   35.0840   22.1410 C.3   257  MET257      0.0387
     97  CG        61.7530   34.0940   22.7760 C.3   257  MET257      0.0595
     98  SD        60.0720   34.6660   22.6460 S.3   257  MET257     -0.1393
     99  CE        59.9560   35.7420   24.0420 C.3   257  MET257      0.0692
    100  N         63.5820   38.9060   29.8780 N.3   285  HIS285     -0.1241
    101  CA        62.3740   39.1390   29.0680 C.3   285  HIS285      0.1621
    102  C         61.3780   39.9910   29.8220 C.2   285  HIS285      0.2264
    103  O         60.9920   39.6300   30.9200 O.2   285  HIS285     -0.2867
    104  CB        61.6990   37.8270   28.6230 C.3   285  HIS285      0.0745
    105  CG        60.5720   38.0710   27.6780 C.ar  285  HIS285      0.0817
    106  ND1       60.7720   38.2300   26.3170 N.ar  285  HIS285     -0.2268
    107  CD2       59.2660   38.3400   27.9050 C.ar  285  HIS285      0.1154
    108  CE1       59.6200   38.5240   25.7360 C.ar  285  HIS285      0.1986
    109  NE2       58.6930   38.6010   26.6790 N.ar  285  HIS285     -0.2212
@<TRIPOS>BOND
     1    90    91   ar
     2    90    88   ar
     3    91    89   ar
     4    53    52    2
     5    88    85   ar
     6    25    27   ar
     7    25    23   ar
     8    27    26   ar
     9    89    87   ar
    10    52    51    1
    11    48    47    2
    12    81    80    2
    13    85    87   ar
    14    85    83   ar
    15    87    86   ar
    16    23    22   ar
    17    50    51    1
    18    26    24   ar
    19    83    82    1
    20    83    84   ar
    21    82    79    1
    22    95    94    2
    23    80    79    1
    24    47    46    1
    25    86    84   ar
    26    42    41    2
    27    22    24   ar
    28    22    21    1
    29    79    78    1
    30    46    49    1
    31    46    45    1
    32    94    93    1
    33    21    18    1
    34    41    45   am
    35    41    40    1
    36    78    72   am
    37    93    96    1
    38    93    92    1
    39    96    97    1
    40    73    72    2
    41    98    97    1
    42    98    99    1
    43    18    19    1
    44    18    17    1
    45    39    40    1
    46    40    43    1
    47    72    71    1
    48    20    19    2
    49    65    64    2
    50    76    74    1
    51    17    15   am
    52    16    15    2
    53    15    14    1
    54    43    44    1
    55    71    74    1
    56    71    70    1
    57    64    63    1
    58    74    75    1
    59    14    13    1
    60    66    63    1
    61    66    67    1
    62    69    67    1
    63    63    62    1
    64    68    67    1
    65    13    11   am
    66   108   106   ar
    67   108   109   ar
    68    75    77    1
    69     9    10    1
    70   106   105   ar
    71    11    12    2
    72    11    10    1
    73   109   107   ar
    74    60    59    1
    75    31    30    2
    76   105   107   ar
    77   105   104    1
    78    30    29    1
    79   104   101    1
    80    57    56    2
    81    59    58    1
    82    59    61    1
    83    58    55    1
    84    32    29    1
    85    32    33    1
    86    28    29    1
    87   101   102    1
    88   101   100    1
    89    56    55    1
    90   102   103    2
    91    55    54    1
    92    35    33   ar
    93    35    37   ar
    94    33    34   ar
    95     7     6    1
    96     8     6    1
    97    37    38   ar
    98    34    36   ar
    99     6     5    1
   100    38    36   ar
   101     5     2    1
   102     2     1    1
   103     2     3    1
   104     3     4    2
