@<TRIPOS>MOLECULE
tmp/2o8hA00.pdb
 162 156 0 0 0
SMALL
GASTEIGER

@<TRIPOS>ATOM
      1  N          9.1010   11.4220   52.3850 N.3    62  HIS62      -0.1241
      2  CA         9.5850   12.1730   53.5770 C.3    62  HIS62       0.1621
      3  C          9.4080   11.4030   54.8780 C.2    62  HIS62       0.2264
      4  O          8.7090   11.8360   55.7970 O.2    62  HIS62      -0.2867
      5  CB         8.9220   13.5350   53.6840 C.3    62  HIS62       0.0745
      6  CG         9.3650   14.4970   52.6380 C.ar   62  HIS62       0.0817
      7  ND1        8.7300   14.6130   51.4180 N.ar   62  HIS62      -0.2268
      8  CD2       10.4210   15.3420   52.5950 C.ar   62  HIS62       0.1154
      9  CE1        9.3490   15.5250   50.6860 C.ar   62  HIS62       0.1986
     10  NE2       10.3850   15.9760   51.3740 N.ar   62  HIS62      -0.2212
     11  N         13.5820   24.3830   50.7930 N.3   172  LEU172     -0.1231
     12  CA        14.2810   24.6110   49.5250 C.3   172  LEU172      0.1693
     13  C         14.0780   26.0230   48.9720 C.2   172  LEU172      0.2591
     14  O         14.9150   26.5070   48.2200 O.2   172  LEU172     -0.2718
     15  CB        13.8790   23.5690   48.4620 C.3   172  LEU172      0.0284
     16  CG        14.7780   23.5000   47.2100 C.3   172  LEU172      0.0019
     17  CD1       16.2590   23.2010   47.5320 C.3   172  LEU172      0.0001
     18  CD2       14.2350   22.4750   46.1880 C.3   172  LEU172      0.0001
     19  N         12.9740   26.6810   49.3100 N.am  173  ALA173     -0.1980
     20  CA        12.7450   28.0730   48.8880 C.3   173  ALA173      0.1597
     21  C         13.8880   29.0010   49.3220 C.2   173  ALA173      0.2287
     22  O         14.2790   29.8990   48.5860 O.2   173  ALA173     -0.2864
     23  CB        11.4290   28.5840   49.4570 C.3   173  ALA173      0.0319
     24  N         17.7370   29.2210   47.2580 N.3   176  PHE176     -0.1241
     25  CA        18.0610   29.9720   46.0540 C.3   176  PHE176      0.1605
     26  C         18.8000   31.2510   46.4180 C.2   176  PHE176      0.2264
     27  O         19.8690   31.5290   45.8710 O.2   176  PHE176     -0.2867
     28  CB        16.7990   30.1720   45.2140 C.3   176  PHE176      0.0534
     29  CG        16.2340   28.8580   44.7230 C.ar  176  PHE176     -0.0203
     30  CD1       16.8220   28.2100   43.6060 C.ar  176  PHE176     -0.0042
     31  CD2       15.2530   28.1990   45.4430 C.ar  176  PHE176     -0.0042
     32  CE1       16.3760   26.9930   43.1820 C.ar  176  PHE176     -0.0003
     33  CE2       14.7990   26.9570   45.0390 C.ar  176  PHE176     -0.0003
     34  CZ        15.3670   26.3370   43.8800 C.ar  176  PHE176     -0.0000
     35  N         18.8730   16.8490   49.3130 N.3   212  LEU212     -0.1245
     36  CA        18.6890   16.4680   47.9290 C.3   212  LEU212      0.1561
     37  C         19.4830   15.2580   47.5060 C.2   212  LEU212      0.2260
     38  O         19.4740   14.9100   46.3410 O.2   212  LEU212     -0.2867
     39  CB        19.0850   17.6640   47.0430 C.3   212  LEU212      0.0270
     40  CG        18.2610   18.9580   47.2370 C.3   212  LEU212      0.0019
     41  CD1       18.6760   19.9630   46.1780 C.3   212  LEU212      0.0001
     42  CD2       16.7760   18.7440   47.1910 C.3   212  LEU212      0.0001
     43  N         19.3900   12.1520   47.0820 N.3   214  SER214     -0.1202
     44  CA        18.9680   11.0710   46.1700 C.3   214  SER214      0.2020
     45  C         19.6310   11.1820   44.8000 C.2   214  SER214      0.2618
     46  O         19.9120   10.1820   44.1530 O.2   214  SER214     -0.2717
     47  CB        17.4390   10.9500   45.9970 C.3   214  SER214      0.2103
     48  OG        16.9090   11.7620   44.9600 O.3   214  SER214     -0.2182
     49  N         19.9030   12.4040   44.3890 N.am  215  VAL215     -0.1979
     50  CA        20.4430   12.6630   43.0580 C.3   215  VAL215      0.1595
     51  C         21.9660   12.4460   42.9760 C.2   215  VAL215      0.2287
     52  O         22.5460   12.5930   41.9060 O.2   215  VAL215     -0.2864
     53  CB        19.9990   14.0890   42.5570 C.3   215  VAL215      0.0276
     54  CG1       18.4910   14.1770   42.4740 C.3   215  VAL215      0.0022
     55  CG2       20.5630   15.2500   43.4410 C.3   215  VAL215      0.0022
     56  N         13.3630    8.2480   43.0090 N.3   226  ALA226     -0.1245
     57  CA        12.5170    9.1500   42.2640 C.3   226  ALA226      0.1562
     58  C         11.0560    8.6560   42.2120 C.2   226  ALA226      0.2260
     59  O         10.1420    9.4650   42.2020 O.2   226  ALA226     -0.2867
     60  CB        13.0950    9.3430   40.8170 C.3   226  ALA226      0.0290
     61  N          9.5300   10.0060   45.3530 N.3   229  ILE229     -0.1231
     62  CA         9.4560   11.4620   45.3830 C.3   229  ILE229      0.1692
     63  C          8.1900   11.8810   44.6170 C.2   229  ILE229      0.2592
     64  O          7.3720   12.6280   45.1400 O.2   229  ILE229     -0.2718
     65  CB        10.7230   12.0890   44.8290 C.3   229  ILE229      0.0266
     66  CG1       11.8830   11.8530   45.8180 C.3   229  ILE229      0.0019
     67  CG2       10.5250   13.5710   44.5640 C.3   229  ILE229      0.0020
     68  CD1       13.2860   12.2080   45.2900 C.3   229  ILE229      0.0001
     69  N          8.0410   11.3740   43.3950 N.am  230  TYR230     -0.1976
     70  CA         6.8360   11.5890   42.5890 C.3   230  TYR230      0.1639
     71  C          5.5610   11.0090   43.1790 C.2   230  TYR230      0.2290
     72  O          4.4940   11.5700   42.9610 O.2   230  TYR230     -0.2864
     73  CB         7.0540   11.1130   41.1300 C.3   230  TYR230      0.0560
     74  CG         7.8230   12.1240   40.3640 C.ar  230  TYR230     -0.0198
     75  CD1        7.1830   13.2570   39.8440 C.ar  230  TYR230     -0.0009
     76  CD2        9.1730   11.9910   40.1840 C.ar  230  TYR230     -0.0009
     77  CE1        7.8920   14.2060   39.1530 C.ar  230  TYR230      0.0417
     78  CE2        9.8930   12.9290   39.4860 C.ar  230  TYR230      0.0417
     79  CZ         9.2600   14.0440   38.9930 C.ar  230  TYR230      0.1957
     80  OH        10.0300   14.9650   38.3180 O.3   230  TYR230     -0.2866
     81  N          4.4940   13.9250   45.2070 N.3   233  PHE233     -0.1241
     82  CA         4.1620   15.0190   44.2920 C.3   233  PHE233      0.1605
     83  C          2.7520   14.8340   43.6560 C.2   233  PHE233      0.2264
     84  O          1.9810   15.7980   43.5800 O.2   233  PHE233     -0.2867
     85  CB         5.1950   15.1270   43.1630 C.3   233  PHE233      0.0534
     86  CG         6.5600   15.7260   43.5600 C.ar  233  PHE233     -0.0203
     87  CD1        6.7790   16.3170   44.8040 C.ar  233  PHE233     -0.0042
     88  CD2        7.6230   15.6470   42.6770 C.ar  233  PHE233     -0.0042
     89  CE1        8.0190   16.8490   45.1050 C.ar  233  PHE233     -0.0003
     90  CE2        8.8380   16.1870   42.9650 C.ar  233  PHE233     -0.0003
     91  CZ         9.0500   16.7710   44.1990 C.ar  233  PHE233     -0.0000
     92  N          0.8060   22.4820   39.2950 N.3   248  ILE248     -0.1231
     93  CA         1.8560   22.4640   38.2780 C.3   248  ILE248      0.1678
     94  C          2.0020   21.0250   37.7980 C.2   248  ILE248      0.2434
     95  O          1.6690   20.1060   38.5440 O.2   248  ILE248     -0.2733
     96  CB         3.2250   22.9810   38.8040 C.3   248  ILE248      0.0265
     97  CG1        3.6120   22.3230   40.1390 C.3   248  ILE248      0.0019
     98  CG2        3.1990   24.4780   38.9190 C.3   248  ILE248      0.0020
     99  CD1        5.0580   22.5790   40.5340 C.3   248  ILE248      0.0001
    100  N          2.4790   20.8440   36.5610 N.am  249  PRO249     -0.2718
    101  CA         2.6490   19.5280   35.9510 C.3   249  PRO249      0.1535
    102  C          3.4980   18.5810   36.7890 C.2   249  PRO249      0.2598
    103  O          3.2330   17.3990   36.8040 O.2   249  PRO249     -0.2715
    104  CB         3.3830   19.8480   34.6480 C.3   249  PRO249      0.0310
    105  CG         2.8960   21.2010   34.3170 C.3   249  PRO249      0.0237
    106  CD         2.8820   21.9130   35.6340 C.3   249  PRO249      0.0939
    107  N          4.4930   19.1180   37.4820 N.am  250  MET250     -0.1964
    108  CA         5.3580   18.2950   38.3190 C.3   250  MET250      0.1736
    109  C          4.5000   17.4340   39.2430 C.2   250  MET250      0.2616
    110  O          4.7910   16.2720   39.4740 O.2   250  MET250     -0.2715
    111  CB         6.2790   19.2100   39.1360 C.3   250  MET250      0.0427
    112  CG         7.2710   18.4930   39.9940 C.3   250  MET250      0.0599
    113  SD         8.2480   19.6950   40.9220 S.3   250  MET250     -0.1393
    114  CE         7.4790   19.5540   42.4490 C.3   250  MET250      0.0692
    115  N          3.4130   18.0180   39.7260 N.am  251  MET251     -0.1977
    116  CA         2.5330   17.3630   40.6800 C.3   251  MET251      0.1605
    117  C          1.2790   16.6810   40.1000 C.2   251  MET251      0.2287
    118  O          0.5270   16.0480   40.8540 O.2   251  MET251     -0.2864
    119  CB         2.1050   18.3920   41.6840 C.3   251  MET251      0.0413
    120  CG         3.2620   18.8810   42.5060 C.3   251  MET251      0.0598
    121  SD         2.6460   19.7220   43.8590 S.3   251  MET251     -0.1393
    122  CE         4.1830   20.5860   44.2900 C.3   251  MET251      0.0692
    123  N         11.1310   16.8210   33.4780 N.3   262  GLY262     -0.1210
    124  CA        11.0710   17.3250   34.8280 C.3   262  GLY262      0.1956
    125  C         12.3990   17.2070   35.5290 C.2   262  GLY262      0.2611
    126  O         12.8360   18.1650   36.1490 O.2   262  GLY262     -0.2717
    127  N         13.0560   16.0570   35.4130 N.am  263  GLN263     -0.1979
    128  CA        14.3590   15.8350   36.0340 C.3   263  GLN263      0.1601
    129  C         15.4520   16.6750   35.3670 C.2   263  GLN263      0.2287
    130  O         16.3060   17.2090   36.0690 O.2   263  GLN263     -0.2864
    131  CB        14.7180   14.3340   36.0870 C.3   263  GLN263      0.0394
    132  CG        13.7390   13.5390   36.9120 C.3   263  GLN263      0.0908
    133  CD        13.8720   13.8880   38.4020 C.2   263  GLN263      0.2608
    134  OE1       14.9100   13.6290   38.9820 O.2   263  GLN263     -0.2717
    135  NE2       12.8830   14.5560   38.9550 N.am  263  GLN263     -0.0878
    136  N         15.0440   19.5800   34.3200 N.3   265  GLY265     -0.1210
    137  CA        14.7850   20.8820   34.9000 C.3   265  GLY265      0.1956
    138  C         15.4020   21.0150   36.2750 C.2   265  GLY265      0.2611
    139  O         16.2070   21.8980   36.5190 O.2   265  GLY265     -0.2717
    140  N         15.0530   20.0810   37.1380 N.am  266  PHE266     -0.1976
    141  CA        15.5630   20.0490   38.5230 C.3   266  PHE266      0.1639
    142  C         17.0670   19.9470   38.6080 C.2   266  PHE266      0.2290
    143  O         17.6630   20.6090   39.4610 O.2   266  PHE266     -0.2864
    144  CB        14.9130   18.9250   39.3320 C.3   266  PHE266      0.0560
    145  CG        15.3510   18.9080   40.7950 C.ar  266  PHE266     -0.0200
    146  CD1       14.8360   19.8120   41.6940 C.ar  266  PHE266     -0.0042
    147  CD2       16.3360   18.0310   41.2140 C.ar  266  PHE266     -0.0042
    148  CE1       15.2900   19.8340   43.0070 C.ar  266  PHE266     -0.0003
    149  CE2       16.7750   18.0610   42.4970 C.ar  266  PHE266     -0.0003
    150  CZ        16.2330   18.9460   43.3900 C.ar  266  PHE266     -0.0000
    151  N         18.6750   23.4640   37.1960 N.3   269  ALA269     -0.1231
    152  CA        18.3120   24.6620   37.9360 C.3   269  ALA269      0.1694
    153  C         18.6490   24.5650   39.4360 C.2   269  ALA269      0.2591
    154  O         18.8090   25.5850   40.0980 O.2   269  ALA269     -0.2718
    155  CB        16.8250   24.9560   37.7720 C.3   269  ALA269      0.0304
    156  N         18.7440   23.3560   39.9550 N.am  270  VAL270     -0.1980
    157  CA        18.8410   23.1780   41.4030 C.3   270  VAL270      0.1595
    158  C         20.0660   22.3390   41.7660 C.2   270  VAL270      0.2287
    159  O         20.9260   22.8320   42.4710 O.2   270  VAL270     -0.2864
    160  CB        17.5360   22.5320   42.0160 C.3   270  VAL270      0.0276
    161  CG1       17.6150   22.4340   43.5390 C.3   270  VAL270      0.0022
    162  CG2       16.3060   23.2920   41.6300 C.3   270  VAL270      0.0022
@<TRIPOS>BOND
     1   123   124    1
     2   105   104    1
     3   105   106    1
     4   136   137    1
     5   104   101    1
     6   124   125    1
     7   137   138    1
     8   129   128    1
     9   129   130    2
    10   127   125   am
    11   127   128    1
    12   125   126    2
    13   106   100    1
    14   101   100    1
    15   101   102    1
    16   128   131    1
    17   131   132    1
    18   138   139    2
    19   138   140   am
    20   100    94   am
    21   102   103    2
    22   102   107   am
    23   132   133    1
    24   140   141    1
    25   151   152    1
    26   107   108    1
    27   155   152    1
    28    94    93    1
    29    94    95    2
    30   152   153    1
    31    93    96    1
    32    93    92    1
    33    80    79    1
    34   108   111    1
    35   108   109    1
    36   133   135   am
    37   133   134    2
    38   141   142    1
    39   141   144    1
    40   142   143    2
    41    96    98    1
    42    96    97    1
    43    79    77   ar
    44    79    78   ar
    45   111   112    1
    46    77    75   ar
    47   109   110    2
    48   109   115   am
    49   144   145    1
    50   153   156   am
    51   153   154    2
    52    78    76   ar
    53   115   116    1
    54    75    74   ar
    55   156   157    1
    56   112   113    1
    57   117   116    1
    58   117   118    2
    59    97    99    1
    60    76    74   ar
    61    74    73    1
    62   116   119    1
    63   145   147   ar
    64   145   146   ar
    65    60    57    1
    66   113   114    1
    67    73    70    1
    68   147   149   ar
    69   157   158    1
    70   157   160    1
    71   162   160    1
    72   119   120    1
    73   146   148   ar
    74   158   159    2
    75    52    51    2
    76   160   161    1
    77    59    58    2
    78    58    57    1
    79    57    56    1
    80    54    53    1
    81   149   150   ar
    82   120   121    1
    83    53    50    1
    84    53    55    1
    85    70    71    1
    86    70    69    1
    87    88    90   ar
    88    88    86   ar
    89    72    71    2
    90    90    91   ar
    91    51    50    1
    92   148   150   ar
    93    50    49    1
    94    85    86    1
    95    85    82    1
    96    32    30   ar
    97    32    34   ar
    98    69    63   am
    99    86    87   ar
   100    84    83    2
   101    30    29   ar
   102    83    82    1
   103   121   122    1
   104    34    33   ar
   105    46    45    2
   106    91    89   ar
   107    82    81    1
   108    49    45   am
   109    67    65    1
   110    63    64    2
   111    63    62    1
   112    29    28    1
   113    29    31   ar
   114    45    44    1
   115    87    89   ar
   116    65    62    1
   117    65    66    1
   118    48    47    1
   119    33    31   ar
   120    28    25    1
   121    68    66    1
   122    61    62    1
   123    27    26    2
   124    47    44    1
   125    25    26    1
   126    25    24    1
   127    44    43    1
   128    41    40    1
   129    18    16    1
   130    38    37    2
   131    39    40    1
   132    39    36    1
   133    42    40    1
   134    16    17    1
   135    16    15    1
   136    37    36    1
   137    36    35    1
   138    14    13    2
   139    15    12    1
   140    22    21    2
   141    20    19    1
   142    20    21    1
   143    20    23    1
   144    13    19   am
   145    13    12    1
   146    12    11    1
   147     9    10   ar
   148     9     7   ar
   149    10     8   ar
   150     7     6   ar
   151     1     2    1
   152     8     6   ar
   153     6     5    1
   154     2     5    1
   155     2     3    1
   156     3     4    2
