@<TRIPOS>MOLECULE
tmp/2o8tA01.pdb
 95 94 0 0 0
SMALL
GASTEIGER

@<TRIPOS>ATOM
      1  N          3.0140   53.4060    1.5420 N.3   117  PHE117     -0.1227
      2  CA         2.4230   53.0100    2.8120 C.3   117  PHE117      0.1736
      3  C          1.0950   53.7430    2.9530 C.2   117  PHE117      0.2596
      4  O          0.9470   54.8800    2.4960 O.2   117  PHE117     -0.2718
      5  CB         3.3650   53.3340    3.9840 C.3   117  PHE117      0.0547
      6  CG         3.4800   54.8020    4.3050 C.ar  117  PHE117     -0.0202
      7  CD1        2.4980   55.4470    5.0520 C.ar  117  PHE117     -0.0042
      8  CD2        4.5830   55.5350    3.8750 C.ar  117  PHE117     -0.0042
      9  CE1        2.6120   56.8000    5.3680 C.ar  117  PHE117     -0.0003
     10  CE2        4.7070   56.8900    4.1850 C.ar  117  PHE117     -0.0003
     11  CZ         3.7200   57.5230    4.9330 C.ar  117  PHE117     -0.0000
     12  N          0.1230   53.0780    3.5670 N.am  118  GLY118     -0.1957
     13  CA        -1.1860   53.6770    3.7350 C.3   118  GLY118      0.1869
     14  C         -2.1490   53.1710    2.6810 C.2   118  GLY118      0.2309
     15  O         -3.3610   53.3390    2.8080 O.2   118  GLY118     -0.2863
     16  N         -4.3130   47.9800    5.4290 N.3   146  LYS146     -0.1231
     17  CA        -3.4710   49.0340    4.8710 C.3   146  LYS146      0.1693
     18  C         -1.9890   48.7580    5.0900 C.2   146  LYS146      0.2592
     19  O         -1.5810   48.3020    6.1610 O.2   146  LYS146     -0.2718
     20  CB        -3.8230   50.3840    5.4960 C.3   146  LYS146      0.0285
     21  CG        -5.2020   50.9070    5.1460 C.3   146  LYS146      0.0035
     22  CD        -5.3400   52.3520    5.5870 C.3   146  LYS146      0.0206
     23  CE        -6.6610   52.9440    5.1480 C.3   146  LYS146      0.1093
     24  NZ        -6.7110   54.4090    5.4160 N.3   146  LYS146     -0.1314
     25  N         -1.1840   49.0520    4.0710 N.am  147  LEU147     -0.1966
     26  CA         0.2580   48.8470    4.1460 C.3   147  LEU147      0.1728
     27  C          0.9230   49.7620    5.1700 C.2   147  LEU147      0.2616
     28  O          0.5910   50.9430    5.2870 O.2   147  LEU147     -0.2715
     29  CB         0.8910   49.0660    2.7690 C.3   147  LEU147      0.0311
     30  CG         1.0020   47.8600    1.8350 C.3   147  LEU147      0.0022
     31  CD1       -0.2520   47.0150    1.8820 C.3   147  LEU147      0.0001
     32  CD2        1.2820   48.3550    0.4250 C.3   147  LEU147      0.0001
     33  N          1.8690   49.1960    5.9080 N.am  148  ILE148     -0.1977
     34  CA         2.6030   49.9200    6.9330 C.3   148  ILE148      0.1596
     35  C          4.0590   50.0370    6.4880 C.2   148  ILE148      0.2287
     36  O          4.6050   49.1070    5.9030 O.2   148  ILE148     -0.2864
     37  CB         2.5300   49.1610    8.2740 C.3   148  ILE148      0.0276
     38  CG1        1.0640   49.0080    8.6950 C.3   148  ILE148      0.0022
     39  CG2        3.3310   49.8900    9.3410 C.3   148  ILE148      0.0022
     40  CD1        0.8620   48.1740    9.9390 C.3   148  ILE148      0.0001
     41  N          7.7910   51.9860   10.6800 N.3   152  GLU152     -0.1245
     42  CA         6.8060   51.8110   11.7370 C.3   152  GLU152      0.1567
     43  C          6.7940   50.3850   12.2810 C.2   152  GLU152      0.2260
     44  O          6.7320   50.1780   13.4940 O.2   152  GLU152     -0.2867
     45  CB         5.4090   52.1820   11.2260 C.3   152  GLU152      0.0388
     46  CG         5.2950   53.6070   10.6930 C.3   152  GLU152      0.1160
     47  CD         3.8560   54.0260   10.4330 C.2   152  GLU152      0.3649
     48  OE1        3.1550   53.3290    9.6700 O.co2 152  GLU152     -0.2457
     49  OE2        3.4220   55.0550   10.9970 O.co2 152  GLU152     -0.2457
     50  N          6.3510   47.2220   17.9850 N.3   158  TYR158     -0.1241
     51  CA         5.7220   46.4670   16.9130 C.3   158  TYR158      0.1605
     52  C          6.4700   45.1400   16.8310 C.2   158  TYR158      0.2264
     53  O          6.2910   44.2810   17.6930 O.2   158  TYR158     -0.2867
     54  CB         5.7950   47.2260   15.5820 C.3   158  TYR158      0.0534
     55  CG         4.6500   48.1970   15.3630 C.ar  158  TYR158     -0.0201
     56  CD1        4.3920   49.2220   16.2730 C.ar  158  TYR158     -0.0009
     57  CD2        3.8280   48.0940   14.2420 C.ar  158  TYR158     -0.0009
     58  CE1        3.3430   50.1180   16.0730 C.ar  158  TYR158      0.0417
     59  CE2        2.7740   48.9870   14.0310 C.ar  158  TYR158      0.0417
     60  CZ         2.5390   49.9940   14.9500 C.ar  158  TYR158      0.1957
     61  OH         1.5010   50.8770   14.7480 O.3   158  TYR158     -0.2866
     62  N         -2.1150   46.2710    8.1810 N.3   171  ALA171     -0.1231
     63  CA        -3.0820   46.1400    9.2620 C.3   171  ALA171      0.1694
     64  C         -4.2050   47.1420    9.1170 C.2   171  ALA171      0.2592
     65  O         -4.1680   48.0390    8.2750 O.2   171  ALA171     -0.2718
     66  CB        -2.3960   46.3310   10.6000 C.3   171  ALA171      0.0304
     67  N         -5.2220   46.9690    9.9510 N.am  172  ASP172     -0.1960
     68  CA        -6.3680   47.8560    9.9500 C.3   172  ASP172      0.1825
     69  C         -6.0620   49.0040   10.9070 C.2   172  ASP172      0.2464
     70  O         -5.4350   48.8000   11.9450 O.2   172  ASP172     -0.2730
     71  CB        -7.6090   47.1010   10.4310 C.3   172  ASP172      0.1450
     72  CG        -8.8460   47.9700   10.4440 C.2   172  ASP172      0.3671
     73  OD1       -9.3930   48.2530    9.3560 O.co2 172  ASP172     -0.2456
     74  OD2       -9.2630   48.3790   11.5490 O.co2 172  ASP172     -0.2456
     75  N         -6.4970   50.2260   10.5680 N.am  173  PRO173     -0.2727
     76  CA        -6.2220   51.3480   11.4670 C.3   173  PRO173      0.1402
     77  C         -6.7940   51.1280   12.8670 C.2   173  PRO173      0.2269
     78  O         -6.2850   51.6730   13.8450 O.2   173  PRO173     -0.2865
     79  CB        -6.8470   52.5410   10.7370 C.3   173  PRO173      0.0296
     80  CG        -7.8880   51.9200    9.8450 C.3   173  PRO173      0.0237
     81  CD        -7.1960   50.6790    9.3560 C.3   173  PRO173      0.0939
     82  N         -7.2300   47.9390   13.9500 N.3   175  TRP175     -0.1241
     83  CA        -6.7600   46.5910   14.2840 C.3   175  TRP175      0.1605
     84  C         -7.9260   45.6120   14.4150 C.2   175  TRP175      0.2264
     85  O         -7.7920   44.5680   15.0480 O.2   175  TRP175     -0.2867
     86  CB        -5.9820   46.5950   15.6040 C.3   175  TRP175      0.0550
     87  CG        -4.9320   47.6480   15.6900 C.ar  175  TRP175      0.0003
     88  CD1       -5.0390   48.8680   16.2960 C.ar  175  TRP175      0.0946
     89  CD2       -3.6130   47.5820   15.1460 C.ar  175  TRP175      0.0152
     90  NE1       -3.8630   49.5650   16.1640 N.ar  175  TRP175     -0.2442
     91  CE2       -2.9700   48.7990   15.4610 C.ar  175  TRP175      0.0810
     92  CE3       -2.9100   46.6110   14.4210 C.ar  175  TRP175      0.0012
     93  CZ2       -1.6520   49.0720   15.0750 C.ar  175  TRP175      0.0191
     94  CZ3       -1.6010   46.8800   14.0380 C.ar  175  TRP175      0.0001
     95  CH2       -0.9870   48.1040   14.3660 C.ar  175  TRP175      0.0015
@<TRIPOS>BOND
     1    32    30    1
     2     1     2    1
     3    30    31    1
     4    30    29    1
     5     4     3    2
     6    14    15    2
     7    14    13    1
     8    29    26    1
     9     2     3    1
    10     2     5    1
    11     3    12   am
    12    12    13    1
    13     8    10   ar
    14     8     6   ar
    15     5     6    1
    16    25    26    1
    17    25    18   am
    18    26    27    1
    19    10    11   ar
    20     6     7   ar
    21    17    18    1
    22    17    16    1
    23    17    20    1
    24    11     9   ar
    25     7     9   ar
    26    18    19    2
    27    21    20    1
    28    21    22    1
    29    23    24    1
    30    23    22    1
    31    27    28    2
    32    27    33   am
    33    36    35    2
    34    33    34    1
    35    35    34    1
    36    34    37    1
    37    62    63    1
    38    37    38    1
    39    37    39    1
    40    65    64    2
    41    38    40    1
    42    64    63    1
    43    64    67   am
    44    63    66    1
    45    81    80    1
    46    81    75    1
    47    73    72   ar
    48    48    47   ar
    49    80    79    1
    50    68    67    1
    51    68    71    1
    52    68    69    1
    53    71    72    1
    54    47    46    1
    55    47    49   ar
    56    72    74   ar
    57    75    69   am
    58    75    76    1
    59    41    42    1
    60    46    45    1
    61    79    76    1
    62    69    70    2
    63    45    42    1
    64    76    77    1
    65    42    43    1
    66    43    44    2
    67    77    78    2
    68    82    83    1
    69    59    57   ar
    70    59    60   ar
    71    94    95   ar
    72    94    92   ar
    73    57    55   ar
    74    83    84    1
    75    83    86    1
    76    95    93   ar
    77    84    85    2
    78    92    89   ar
    79    61    60    1
    80    60    58   ar
    81    93    91   ar
    82    89    91   ar
    83    89    87   ar
    84    55    54    1
    85    55    56   ar
    86    91    90   ar
    87    54    51    1
    88    86    87    1
    89    87    88   ar
    90    58    56   ar
    91    90    88   ar
    92    52    51    1
    93    52    53    2
    94    51    50    1
