@<TRIPOS>MOLECULE
tmp/2o8uA02.pdb
 92 90 0 0 0
SMALL
GASTEIGER

@<TRIPOS>ATOM
      1  N         15.7930    0.1720   -4.2450 N.3    22  VAL22      -0.1231
      2  CA        16.6710    1.1080   -3.5460 C.3    22  VAL22       0.1692
      3  C         17.9580    1.3560   -4.3230 C.2    22  VAL22       0.2593
      4  O         18.7180    0.4260   -4.6110 O.2    22  VAL22      -0.2718
      5  CB        17.0390    0.5920   -2.1390 C.3    22  VAL22       0.0266
      6  CG1       17.9810    1.5720   -1.4550 C.3    22  VAL22       0.0020
      7  CG2       15.7820    0.4140   -1.3080 C.3    22  VAL22       0.0020
      8  N         18.2040    2.6230   -4.6480 N.am   23  THR23      -0.1939
      9  CA        19.3920    2.9990   -5.3970 C.3    23  THR23       0.2028
     10  C         20.1560    4.1190   -4.7060 C.2    23  THR23       0.2642
     11  O         19.5920    4.8810   -3.9170 O.2    23  THR23      -0.2714
     12  CB        19.0170    3.4480   -6.8250 C.3    23  THR23       0.1808
     13  OG1       18.1090    4.5540   -6.7580 O.3    23  THR23      -0.2208
     14  CG2       18.3450    2.3000   -7.5810 C.3    23  THR23       0.0379
     15  N         21.4470    4.2110   -5.0040 N.am   24  TYR24      -0.1973
     16  CA        22.2870    5.2420   -4.4100 C.3    24  TYR24       0.1639
     17  C         21.8900    6.6060   -4.9560 C.2    24  TYR24       0.2290
     18  O         21.4940    6.7280   -6.1090 O.2    24  TYR24      -0.2864
     19  CB        23.7550    4.9770   -4.7300 C.3    24  TYR24       0.0560
     20  CG        24.7060    5.8550   -3.9530 C.ar   24  TYR24      -0.0198
     21  CD1       24.7920    5.7620   -2.5620 C.ar   24  TYR24      -0.0009
     22  CD2       25.5280    6.7690   -4.6060 C.ar   24  TYR24      -0.0009
     23  CE1       25.6750    6.5590   -1.8420 C.ar   24  TYR24       0.0417
     24  CE2       26.4200    7.5760   -3.8920 C.ar   24  TYR24       0.0417
     25  CZ        26.4860    7.4610   -2.5120 C.ar   24  TYR24       0.1957
     26  OH        27.3570    8.2470   -1.7970 O.3    24  TYR24      -0.2866
     27  N         28.9140    0.0060   -1.6290 N.3    61  LEU61      -0.1231
     28  CA        27.7050    0.5290   -2.2530 C.3    61  LEU61       0.1693
     29  C         26.4870   -0.3930   -2.1230 C.2    61  LEU61       0.2592
     30  O         25.4310    0.0230   -1.6510 O.2    61  LEU61      -0.2718
     31  CB        27.9650    0.7930   -3.7350 C.3    61  LEU61       0.0284
     32  CG        27.3960    2.0700   -4.3620 C.3    61  LEU61       0.0019
     33  CD1       27.0530    1.7680   -5.8080 C.3    61  LEU61       0.0001
     34  CD2       26.1730    2.5690   -3.6170 C.3    61  LEU61       0.0001
     35  N         26.6400   -1.6440   -2.5420 N.am   62  ASN62      -0.1974
     36  CA        25.5320   -2.5920   -2.4950 C.3    62  ASN62       0.1688
     37  C         25.6900   -3.7490   -1.5060 C.2    62  ASN62       0.2292
     38  O         25.0440   -4.7880   -1.6570 O.2    62  ASN62      -0.2864
     39  CB        25.2780   -3.1270   -3.9030 C.3    62  ASN62       0.1181
     40  CG        24.7950   -2.0460   -4.8500 C.2    62  ASN62       0.2629
     41  OD1       23.6700   -1.5590   -4.7270 O.2    62  ASN62      -0.2716
     42  ND2       25.6470   -1.6540   -5.7930 N.am   62  ASN62      -0.0877
     43  N         29.2360    3.3800  -16.5470 N.3   141  TYR141     -0.1227
     44  CA        27.7990    3.3090  -16.3360 C.3   141  TYR141      0.1736
     45  C         27.5980    2.9560  -14.8710 C.2   141  TYR141      0.2595
     46  O         26.7310    3.5070  -14.1900 O.2   141  TYR141     -0.2718
     47  CB        27.1950    2.2180  -17.2250 C.3   141  TYR141      0.0548
     48  CG        25.6990    2.0610  -17.0830 C.ar  141  TYR141     -0.0200
     49  CD1       25.1490    0.9280  -16.4860 C.ar  141  TYR141     -0.0009
     50  CD2       24.8320    3.0480  -17.5460 C.ar  141  TYR141     -0.0009
     51  CE1       23.7690    0.7800  -16.3540 C.ar  141  TYR141      0.0417
     52  CE2       23.4510    2.9110  -17.4180 C.ar  141  TYR141      0.0417
     53  CZ        22.9280    1.7750  -16.8220 C.ar  141  TYR141      0.1957
     54  OH        21.5660    1.6360  -16.6920 O.3   141  TYR141     -0.2866
     55  N         28.4270    2.0340  -14.3950 N.am  142  LEU142     -0.1966
     56  CA        28.3690    1.5790  -13.0180 C.3   142  LEU142      0.1728
     57  C         29.1450    2.5030  -12.0920 C.2   142  LEU142      0.2616
     58  O         29.9990    3.2680  -12.5350 O.2   142  LEU142     -0.2715
     59  CB        28.9640    0.1710  -12.9020 C.3   142  LEU142      0.0311
     60  CG        28.2300   -1.0050  -13.5500 C.3   142  LEU142      0.0022
     61  CD1       29.1140   -2.2430  -13.5100 C.3   142  LEU142      0.0001
     62  CD2       26.9290   -1.2530  -12.8160 C.3   142  LEU142      0.0001
     63  N         28.8120    2.4370  -10.8090 N.am  143  TYR143     -0.1974
     64  CA        29.5110    3.1990   -9.7820 C.3   143  TYR143      0.1639
     65  C         30.3370    2.1250   -9.0810 C.2   143  TYR143      0.2290
     66  O         29.9380    0.9560   -9.0570 O.2   143  TYR143     -0.2864
     67  CB        28.5390    3.7960   -8.7580 C.3   143  TYR143      0.0560
     68  CG        27.7540    5.0120   -9.2090 C.ar  143  TYR143     -0.0198
     69  CD1       27.9170    5.5550  -10.4870 C.ar  143  TYR143     -0.0009
     70  CD2       26.8360    5.6150   -8.3530 C.ar  143  TYR143     -0.0009
     71  CE1       27.1750    6.6690  -10.9000 C.ar  143  TYR143      0.0417
     72  CE2       26.0930    6.7270   -8.7540 C.ar  143  TYR143      0.0417
     73  CZ        26.2680    7.2440  -10.0250 C.ar  143  TYR143      0.1957
     74  OH        25.5240    8.3310  -10.4170 O.3   143  TYR143     -0.2866
     75  N         31.8820   -0.3430   -6.3280 N.3   145  GLU145     -0.1245
     76  CA        31.2780   -1.0390   -5.2090 C.3   145  GLU145      0.1567
     77  C         31.9910   -0.6390   -3.9120 C.2   145  GLU145      0.2260
     78  O         31.4210   -0.7300   -2.8230 O.2   145  GLU145     -0.2867
     79  CB        31.3980   -2.5440   -5.4510 C.3   145  GLU145      0.0388
     80  CG        30.4710   -3.4060   -4.6330 C.3   145  GLU145      0.1160
     81  CD        29.0170   -2.9850   -4.7500 C.2   145  GLU145      0.3649
     82  OE1       28.4960   -2.8680   -5.8830 O.co2 145  GLU145     -0.2457
     83  OE2       28.3970   -2.7780   -3.6950 O.co2 145  GLU145     -0.2457
     84  N         30.1880   12.2770  -11.3740 N.3   188  GLN188     -0.1245
     85  CA        28.7900   11.9090  -11.1810 C.3   188  GLN188      0.1566
     86  C         28.6850   10.8400  -10.0970 C.2   188  GLN188      0.2260
     87  O         29.3500    9.8100  -10.1710 O.2   188  GLN188     -0.2867
     88  CB        28.1930   11.3690  -12.4860 C.3   188  GLN188      0.0367
     89  CG        26.6990   11.0500  -12.3970 C.3   188  GLN188      0.0905
     90  CD        26.1730   10.3260  -13.6320 C.2   188  GLN188      0.2608
     91  OE1       26.3880   10.7630  -14.7640 O.2   188  GLN188     -0.2717
     92  NE2       25.4770    9.2140  -13.4150 N.am  188  GLN188     -0.0878
@<TRIPOS>BOND
     1    50    52   ar
     2    50    48   ar
     3    52    53   ar
     4    47    48    1
     5    47    44    1
     6    48    49   ar
     7    53    54    1
     8    53    51   ar
     9    43    44    1
    10    49    51   ar
    11    44    45    1
    12    45    55   am
    13    45    46    2
    14    91    90    2
    15    55    56    1
    16    90    92   am
    17    90    89    1
    18    60    61    1
    19    60    59    1
    20    60    62    1
    21    56    59    1
    22    56    57    1
    23    58    57    2
    24    88    89    1
    25    88    85    1
    26    57    63   am
    27    84    85    1
    28    85    86    1
    29    71    69   ar
    30    71    73   ar
    31    63    64    1
    32    69    68   ar
    33    74    73    1
    34    87    86    2
    35    73    72   ar
    36    64    65    1
    37    64    67    1
    38    68    67    1
    39    68    70   ar
    40    65    66    2
    41    72    70   ar
    42    14    12    1
    43    12    13    1
    44    12     9    1
    45    75    76    1
    46    18    17    2
    47    82    81   ar
    48    33    32    1
    49    42    40   am
    50    79    76    1
    51    79    80    1
    52     9    10    1
    53     9     8    1
    54    76    77    1
    55    15    10   am
    56    15    16    1
    57    17    16    1
    58    40    41    2
    59    40    39    1
    60    81    80    1
    61    81    83   ar
    62    19    16    1
    63    19    20    1
    64    10    11    2
    65     8     3   am
    66     4     3    2
    67    22    20   ar
    68    22    24   ar
    69    32    31    1
    70    32    34    1
    71     3     2    1
    72     1     2    1
    73    20    21   ar
    74    77    78    2
    75    39    36    1
    76    24    25   ar
    77    31    28    1
    78     2     5    1
    79    21    23   ar
    80    35    36    1
    81    35    29   am
    82    25    23   ar
    83    25    26    1
    84    36    37    1
    85    28    29    1
    86    28    27    1
    87     5     6    1
    88     5     7    1
    89    29    30    2
    90    38    37    2
