@<TRIPOS>MOLECULE
tmp/2o8uA01.pdb
 112 110 0 0 0
SMALL
GASTEIGER

@<TRIPOS>ATOM
      1  N         38.8160   29.6950    5.3440 N.3   121  ASP121     -0.1225
      2  CA        39.1980   28.6210    4.4350 C.3   121  ASP121      0.1790
      3  C         40.7000   28.5680    4.2100 C.2   121  ASP121      0.2440
      4  O         41.3900   29.5810    4.3250 O.2   121  ASP121     -0.2733
      5  CB        38.4970   28.7960    3.0920 C.3   121  ASP121      0.1423
      6  CG        36.9960   28.8130    3.2260 C.2   121  ASP121      0.3668
      7  OD1       36.4570   27.9030    3.8890 O.co2 121  ASP121     -0.2456
      8  OD2       36.3630   29.7300    2.6690 O.co2 121  ASP121     -0.2456
      9  N         41.2280   27.3800    3.8800 N.am  122  PRO122     -0.2718
     10  CA        42.6670   27.2240    3.6410 C.3   122  PRO122      0.1535
     11  C         43.0950   28.0890    2.4620 C.2   122  PRO122      0.2598
     12  O         42.2730   28.4600    1.6270 O.2   122  PRO122     -0.2715
     13  CB        42.8130   25.7360    3.3230 C.3   122  PRO122      0.0310
     14  CG        41.6190   25.1080    3.9820 C.3   122  PRO122      0.0237
     15  CD        40.5250   26.0990    3.7060 C.3   122  PRO122      0.0939
     16  N         44.3830   28.4040    2.3930 N.am  123  GLN123     -0.1964
     17  CA        44.9030   29.2090    1.2970 C.3   123  GLN123      0.1733
     18  C         44.8120   28.3860    0.0220 C.2   123  GLN123      0.2616
     19  O         44.8800   27.1540    0.0720 O.2   123  GLN123     -0.2715
     20  CB        46.3660   29.5690    1.5560 C.3   123  GLN123      0.0408
     21  CG        46.6010   30.3240    2.8460 C.3   123  GLN123      0.0908
     22  CD        48.0710   30.5680    3.1050 C.2   123  GLN123      0.2608
     23  OE1       48.8550   29.6250    3.2320 O.2   123  GLN123     -0.2717
     24  NE2       48.4570   31.8400    3.1820 N.am  123  GLN123     -0.0878
     25  N         44.6590   29.0490   -1.1210 N.am  124  PHE124     -0.1974
     26  CA        44.5910   28.3130   -2.3740 C.3   124  PHE124      0.1639
     27  C         45.9010   27.5450   -2.4990 C.2   124  PHE124      0.2290
     28  O         46.9420   28.0010   -2.0220 O.2   124  PHE124     -0.2864
     29  CB        44.3910   29.2630   -3.5630 C.3   124  PHE124      0.0560
     30  CG        45.5370   30.2070   -3.8000 C.ar  124  PHE124     -0.0200
     31  CD1       46.7100   29.7670   -4.4100 C.ar  124  PHE124     -0.0042
     32  CD2       45.4390   31.5430   -3.4260 C.ar  124  PHE124     -0.0042
     33  CE1       47.7670   30.6420   -4.6470 C.ar  124  PHE124     -0.0003
     34  CE2       46.4900   32.4280   -3.6580 C.ar  124  PHE124     -0.0003
     35  CZ        47.6570   31.9750   -4.2700 C.ar  124  PHE124     -0.0000
     36  N         42.9950   23.3230   -3.6330 N.3   154  LEU154     -0.1231
     37  CA        42.1080   24.4780   -3.6790 C.3   154  LEU154      0.1693
     38  C         42.5860   25.4940   -4.7130 C.2   154  LEU154      0.2592
     39  O         43.7780   25.8080   -4.7920 O.2   154  LEU154     -0.2718
     40  CB        42.0460   25.1320   -2.2940 C.3   154  LEU154      0.0284
     41  CG        40.9200   24.7580   -1.3240 C.3   154  LEU154      0.0019
     42  CD1       40.5470   23.3010   -1.4440 C.3   154  LEU154      0.0001
     43  CD2       41.3560   25.0950    0.0920 C.3   154  LEU154      0.0001
     44  N         41.6480   25.9990   -5.5070 N.am  155  ILE155     -0.1966
     45  CA        41.9470   26.9890   -6.5320 C.3   155  ILE155      0.1727
     46  C         41.2980   28.3160   -6.1320 C.2   155  ILE155      0.2617
     47  O         40.1550   28.3420   -5.6730 O.2   155  ILE155     -0.2715
     48  CB        41.4050   26.5350   -7.9100 C.3   155  ILE155      0.0290
     49  CG1       42.1210   25.2510   -8.3520 C.3   155  ILE155      0.0022
     50  CG2       41.6080   27.6310   -8.9460 C.3   155  ILE155      0.0023
     51  CD1       41.5280   24.6070   -9.5970 C.3   155  ILE155      0.0001
     52  N         42.0300   29.4130   -6.2910 N.am  156  SER156     -0.1936
     53  CA        41.4950   30.7180   -5.9310 C.3   156  SER156      0.2055
     54  C         40.3160   31.0670   -6.8280 C.2   156  SER156      0.2643
     55  O         40.2120   30.5650   -7.9480 O.2   156  SER156     -0.2714
     56  CB        42.5730   31.7960   -6.0710 C.3   156  SER156      0.2130
     57  OG        42.9090   32.0020   -7.4360 O.3   156  SER156     -0.2179
     58  N         39.4260   31.9190   -6.3260 N.am  157  HIS157     -0.1959
     59  CA        38.2710   32.3550   -7.0960 C.3   157  HIS157      0.1787
     60  C         38.8230   33.0930   -8.3150 C.2   157  HIS157      0.2620
     61  O         38.2430   33.0490   -9.4010 O.2   157  HIS157     -0.2715
     62  CB        37.4060   33.2990   -6.2590 C.3   157  HIS157      0.0785
     63  CG        36.0890   33.6380   -6.8890 C.ar  157  HIS157      0.0821
     64  ND1       35.6310   34.9330   -7.0030 N.ar  157  HIS157     -0.2267
     65  CD2       35.1250   32.8500   -7.4190 C.ar  157  HIS157      0.1154
     66  CE1       34.4400   34.9280   -7.5750 C.ar  157  HIS157      0.1986
     67  NE2       34.1090   33.6770   -7.8380 N.ar  157  HIS157     -0.2212
     68  N         39.9530   33.7700   -8.1170 N.am  158  ARG158     -0.1977
     69  CA        40.6280   34.5050   -9.1830 C.3   158  ARG158      0.1597
     70  C         40.8310   33.5650  -10.3720 C.2   158  ARG158      0.2287
     71  O         40.2920   33.7710  -11.4650 O.2   158  ARG158     -0.2864
     72  CB        42.0110   34.9820   -8.7080 C.3   158  ARG158      0.0334
     73  CG        42.0410   35.8040   -7.4170 C.3   158  ARG158      0.0492
     74  CD        43.4720   35.8640   -6.8480 C.3   158  ARG158      0.2205
     75  NE        43.5940   36.7330   -5.6770 N.pl3 158  ARG158     -0.0865
     76  CZ        44.7180   36.9090   -4.9840 C.cat 158  ARG158      0.5346
     77  NH1       45.8290   36.2680   -5.3270 N.pl3 158  ARG158      0.1354
     78  NH2       44.7460   37.7560   -3.9610 N.pl3 158  ARG158      0.1354
     79  N         31.5360   33.5610   -5.1520 N.3   172  THR172     -0.1218
     80  CA        32.2770   33.5240   -3.8990 C.3   172  THR172      0.1862
     81  C         31.7260   32.5220   -2.8860 C.2   172  THR172      0.2287
     82  O         32.3850   32.2220   -1.8960 O.2   172  THR172     -0.2866
     83  CB        32.3370   34.9170   -3.2380 C.3   172  THR172      0.1770
     84  OG1       31.0100   35.4370   -3.0920 O.3   172  THR172     -0.2211
     85  CG2       33.1710   35.8670   -4.0810 C.3   172  THR172      0.0375
     86  N         31.1830   29.5530   -3.6790 N.3   174  MET174     -0.1230
     87  CA        31.6660   28.2860   -4.2160 C.3   174  MET174      0.1702
     88  C         33.1870   28.2320   -4.1440 C.2   174  MET174      0.2592
     89  O         33.8640   29.2680   -4.1770 O.2   174  MET174     -0.2718
     90  CB        31.2540   28.1340   -5.6810 C.3   174  MET174      0.0401
     91  CG        29.7610   28.1490   -5.9450 C.3   174  MET174      0.0596
     92  SD        29.4270   28.2730   -7.7030 S.3   174  MET174     -0.1393
     93  CE        27.7770   29.0010   -7.6890 C.3   174  MET174      0.0692
     94  N         33.7120   27.0160   -4.0550 N.am  175  LEU175     -0.1980
     95  CA        35.1510   26.7820   -3.9980 C.3   175  LEU175      0.1596
     96  C         35.5260   25.8170   -5.1070 C.2   175  LEU175      0.2287
     97  O         34.8580   24.8050   -5.2940 O.2   175  LEU175     -0.2864
     98  CB        35.5540   26.1480   -2.6600 C.3   175  LEU175      0.0297
     99  CG        35.8960   27.0050   -1.4420 C.3   175  LEU175      0.0022
    100  CD1       36.1960   26.0860   -0.2650 C.3   175  LEU175      0.0001
    101  CD2       37.1010   27.8920   -1.7430 C.3   175  LEU175      0.0001
    102  N         30.8600   26.2970   -0.6280 N.3   226  ARG226     -0.1245
    103  CA        31.7900   26.8550    0.3520 C.3   226  ARG226      0.1563
    104  C         31.1200   26.8740    1.7180 C.2   226  ARG226      0.2260
    105  O         30.4340   27.8370    2.0730 O.2   226  ARG226     -0.2867
    106  CB        32.1770   28.2710   -0.0830 C.3   226  ARG226      0.0307
    107  CG        33.4160   28.8550    0.5780 C.3   226  ARG226      0.0489
    108  CD        33.7880   30.1490   -0.1250 C.3   226  ARG226      0.2205
    109  NE        35.0650   30.6900    0.3190 N.pl3 226  ARG226     -0.0865
    110  CZ        35.6060   31.8070   -0.1570 C.cat 226  ARG226      0.5346
    111  NH1       34.9790   32.5050   -1.0940 N.pl3 226  ARG226      0.1354
    112  NH2       36.7790   32.2240    0.3030 N.pl3 226  ARG226      0.1354
@<TRIPOS>BOND
     1    71    70    2
     2    70    69    1
     3    51    49    1
     4    61    60    2
     5    69    72    1
     6    69    68    1
     7    50    48    1
     8    72    73    1
     9    49    48    1
    10    60    68   am
    11    60    59    1
    12    55    54    2
    13    48    45    1
    14    67    66   ar
    15    67    65   ar
    16    92    93    1
    17    92    91    1
    18    66    64   ar
    19    57    56    1
    20    65    63   ar
    21    73    74    1
    22    59    58    1
    23    59    62    1
    24    64    63   ar
    25    63    62    1
    26    74    75    1
    27    54    58   am
    28    54    53    1
    29    45    46    1
    30    45    44    1
    31    52    46   am
    32    52    53    1
    33    46    47    2
    34    56    53    1
    35    91    90    1
    36    90    87    1
    37    75    76    2
    38    44    38   am
    39    77    76    1
    40    97    96    2
    41    79    80    1
    42    96    95    1
    43    76    78    1
    44    39    38    2
    45    38    37    1
    46    33    31   ar
    47    33    35   ar
    48    31    30   ar
    49    35    34   ar
    50    87    88    1
    51    87    86    1
    52    89    88    2
    53    88    94   am
    54    85    83    1
    55    94    95    1
    56    95    98    1
    57    80    83    1
    58    80    81    1
    59    30    29    1
    60    30    32   ar
    61    37    36    1
    62    37    40    1
    63    34    32   ar
    64    29    26    1
    65    83    84    1
    66    81    82    2
    67    98    99    1
    68    27    26    1
    69    27    28    2
    70    26    25    1
    71    40    41    1
    72   101    99    1
    73    42    41    1
    74    99   100    1
    75    41    43    1
    76    25    18   am
    77   111   110    1
    78   102   103    1
    79   110   112    1
    80   110   109    2
    81   108   109    1
    82   108   107    1
    83   106   103    1
    84   106   107    1
    85    18    19    2
    86    18    17    1
    87   103   104    1
    88    17    20    1
    89    17    16    1
    90    20    21    1
    91    12    11    2
    92   104   105    2
    93    16    11   am
    94    11    10    1
    95     8     6   ar
    96    21    22    1
    97     5     6    1
    98     5     2    1
    99    22    24   am
   100    22    23    2
   101     6     7   ar
   102    13    10    1
   103    13    14    1
   104    10     9    1
   105    15     9    1
   106    15    14    1
   107     9     3   am
   108     3     4    2
   109     3     2    1
   110     2     1    1
