@<TRIPOS>MOLECULE
tmp/2o95B00.pdb
 111 107 0 0 0
SMALL
GASTEIGER

@<TRIPOS>ATOM
      1  N         -7.8360    6.9460    7.3890 N.3    23  PHE23      -0.1241
      2  CA        -9.0290    6.7310    8.1820 C.3    23  PHE23       0.1605
      3  C         -8.7500    6.0360    9.5210 C.2    23  PHE23       0.2264
      4  O         -9.2820    6.4520   10.5660 O.2    23  PHE23      -0.2867
      5  CB       -10.0430    5.9410    7.3710 C.3    23  PHE23       0.0534
      6  CG       -11.3080    5.7520    8.0920 C.ar   23  PHE23      -0.0203
      7  CD1      -12.3030    6.7050    7.9770 C.ar   23  PHE23      -0.0042
      8  CD2      -11.4710    4.6680    8.9530 C.ar   23  PHE23      -0.0042
      9  CE1      -13.4830    6.5620    8.6500 C.ar   23  PHE23      -0.0003
     10  CE2      -12.6680    4.5110    9.6910 C.ar   23  PHE23      -0.0003
     11  CZ       -13.6700    5.4640    9.5140 C.ar   23  PHE23      -0.0000
     12  N        -16.9440   10.0560    8.5190 N.3    34  ARG34      -0.1245
     13  CA       -16.3090    9.7870    7.2040 C.3    34  ARG34       0.1563
     14  C        -15.2300   10.7870    6.8240 C.2    34  ARG34       0.2260
     15  O        -15.2460   11.9650    7.2270 O.2    34  ARG34      -0.2867
     16  CB       -17.3150    9.7080    6.0690 C.3    34  ARG34       0.0307
     17  CG       -17.9000   11.0480    5.6970 C.3    34  ARG34       0.0489
     18  CD       -18.7760   10.8810    4.5130 C.3    34  ARG34       0.2205
     19  NE       -19.5890   12.1030    4.3630 N.pl3  34  ARG34      -0.0865
     20  CZ       -20.2380   12.4200    3.2460 C.cat  34  ARG34       0.5346
     21  NH1      -20.1590   11.6110    2.2050 N.pl3  34  ARG34       0.1354
     22  NH2      -20.9860   13.5010    3.1850 N.pl3  34  ARG34       0.1354
     23  N        -15.4010    7.7430    2.7130 N.3    97  THR97      -0.1203
     24  CA       -15.2800    6.4390    3.2980 C.3    97  THR97       0.1994
     25  C        -16.6740    5.8560    3.6180 C.2    97  THR97       0.2618
     26  O        -16.7850    4.7520    4.0410 O.2    97  THR97      -0.2717
     27  CB       -14.3290    6.4950    4.5110 C.3    97  THR97       0.1784
     28  OG1      -14.8090    7.4860    5.4050 O.3    97  THR97      -0.2211
     29  CG2      -12.9180    6.9070    4.0460 C.3    97  THR97       0.0376
     30  N        -17.7380    6.6060    3.3870 N.am   98  GLY98      -0.1942
     31  CA       -19.0750    6.0240    3.3800 C.3    98  GLY98       0.1998
     32  C        -19.4470    5.6910    4.8160 C.2    98  GLY98       0.2480
     33  O        -19.2460    6.5220    5.6910 O.2    98  GLY98      -0.2729
     34  N        -19.9210    4.4630    5.0720 N.am   99  PRO99      -0.2726
     35  CA       -20.0580    3.3410    4.1200 C.3    99  PRO99       0.1402
     36  C        -21.0050    3.5470    2.9380 C.2    99  PRO99       0.2269
     37  O        -20.9380    2.8120    1.9870 O.2    99  PRO99      -0.2865
     38  CB       -20.5970    2.1870    4.9900 C.3    99  PRO99       0.0296
     39  CG       -21.1420    2.8280    6.2010 C.3    99  PRO99       0.0237
     40  CD       -20.3490    4.0670    6.4370 C.3    99  PRO99       0.0939
     41  N        -16.8000    5.5520   -3.1670 N.3   123  ILE123     -0.1245
     42  CA       -16.8950    5.2370   -1.7520 C.3   123  ILE123      0.1561
     43  C        -15.9370    4.1340   -1.5000 C.2   123  ILE123      0.2260
     44  O        -16.0130    3.0570   -2.0770 O.2   123  ILE123     -0.2867
     45  CB       -18.3350    4.8800   -1.2600 C.3   123  ILE123      0.0252
     46  CG1      -19.2580    6.0680   -1.4750 C.3   123  ILE123      0.0019
     47  CG2      -18.2970    4.5550    0.2520 C.3   123  ILE123      0.0019
     48  CD1      -20.7020    5.7530   -1.1170 C.3   123  ILE123      0.0001
     49  N        -14.6010    1.6220    1.0790 N.3   125  ASP125     -0.1225
     50  CA       -14.9070    0.8390    2.2630 C.3   125  ASP125      0.1805
     51  C        -13.6240    0.6670    3.0830 C.2   125  ASP125      0.2598
     52  O        -12.6840    0.0080    2.6380 O.2   125  ASP125     -0.2718
     53  CB       -15.4500   -0.5040    1.7890 C.3   125  ASP125      0.1424
     54  CG       -15.9150   -1.4160    2.9050 C.2   125  ASP125      0.3668
     55  OD1      -15.6250   -1.1670    4.1030 O.co2 125  ASP125     -0.2456
     56  OD2      -16.6020   -2.4140    2.5550 O.co2 125  ASP125     -0.2456
     57  N        -13.6100    1.2480    4.2770 N.am  126  VAL126     -0.1966
     58  CA       -12.4690    1.1840    5.2060 C.3   126  VAL126      0.1727
     59  C        -12.7100    0.2160    6.3530 C.2   126  VAL126      0.2616
     60  O        -11.8630    0.0680    7.2470 O.2   126  VAL126     -0.2715
     61  CB       -12.0520    2.5900    5.7930 C.3   126  VAL126      0.0290
     62  CG1      -11.8330    3.5300    4.7780 C.3   126  VAL126      0.0023
     63  CG2      -13.1490    3.2210    6.3870 C.3   126  VAL126      0.0023
     64  N        -13.8470   -0.4660    6.3460 N.am  127  LYS127     -0.1977
     65  CA       -14.1170   -1.4400    7.4010 C.3   127  LYS127      0.1596
     66  C        -13.3200   -2.6870    7.1050 C.2   127  LYS127      0.2287
     67  O        -13.4240   -3.2160    6.0030 O.2   127  LYS127     -0.2864
     68  CB       -15.5870   -1.7920    7.4970 C.3   127  LYS127      0.0298
     69  CG       -16.4710   -0.6700    7.9970 C.3   127  LYS127      0.0038
     70  CD       -17.9350   -1.1700    7.9870 C.3   127  LYS127      0.0206
     71  CE       -18.9500   -0.0850    7.5950 C.3   127  LYS127      0.1093
     72  NZ       -20.2980   -0.6970    7.3310 N.3   127  LYS127     -0.1314
     73  N        -15.2700   -6.3730    5.7970 N.3   130  ASP130     -0.1239
     74  CA       -16.3310   -5.9560    4.8640 C.3   130  ASP130      0.1674
     75  C        -16.0640   -6.4770    3.4430 C.2   130  ASP130      0.2266
     76  O        -15.5670   -7.6030    3.2530 O.2   130  ASP130     -0.2867
     77  CB       -16.3880   -4.4290    4.7910 C.3   130  ASP130      0.1410
     78  CG       -17.6670   -3.8500    5.3820 C.2   130  ASP130      0.3668
     79  OD1      -18.1650   -4.3470    6.4250 O.co2 130  ASP130     -0.2456
     80  OD2      -18.1790   -2.8860    4.7940 O.co2 130  ASP130     -0.2456
     81  N        -15.3400   -6.0060   -1.4090 N.3   132  LEU132     -0.1231
     82  CA       -15.7070   -4.9300   -2.3870 C.3   132  LEU132      0.1678
     83  C        -15.3790   -3.5650   -1.8700 C.2   132  LEU132      0.2434
     84  O        -16.2450   -2.8030   -1.4220 O.2   132  LEU132     -0.2733
     85  CB       -17.1300   -5.0080   -2.9320 C.3   132  LEU132      0.0284
     86  CG       -17.4400   -6.2490   -3.7630 C.3   132  LEU132      0.0019
     87  CD1      -18.4110   -5.9080   -4.8530 C.3   132  LEU132      0.0001
     88  CD2      -16.2330   -7.0380   -4.3110 C.3   132  LEU132      0.0001
     89  N        -14.0900   -3.2480   -1.9230 N.am  133  PRO133     -0.2718
     90  CA       -13.4810   -2.0600   -1.3650 C.3   133  PRO133      0.1535
     91  C        -14.0060   -0.7380   -1.9450 C.2   133  PRO133      0.2599
     92  O        -14.0630    0.2520   -1.2370 O.2   133  PRO133     -0.2715
     93  CB       -11.9780   -2.2680   -1.6670 C.3   133  PRO133      0.0310
     94  CG       -11.9210   -3.3060   -2.6710 C.3   133  PRO133      0.0237
     95  CD       -13.1000   -4.1540   -2.5370 C.3   133  PRO133      0.0939
     96  N        -14.3980   -0.7380   -3.2170 N.am  134  THR134     -0.1937
     97  CA       -14.7590    0.4960   -3.9020 C.3   134  THR134      0.2028
     98  C        -16.1490    0.3840   -4.4980 C.2   134  THR134      0.2642
     99  O        -16.5560   -0.6960   -4.9520 O.2   134  THR134     -0.2714
    100  CB       -13.7660    0.8700   -5.0290 C.3   134  THR134      0.1808
    101  OG1      -13.7590   -0.1530   -6.0160 O.3   134  THR134     -0.2208
    102  CG2      -12.3430    1.0460   -4.4800 C.3   134  THR134      0.0379
    103  N        -16.8530    1.4870   -4.4480 N.am  135  GLU135     -0.1976
    104  CA       -18.1190    1.6290   -5.1030 C.3   135  GLU135      0.1602
    105  C        -18.0830    2.9850   -5.7830 C.2   135  GLU135      0.2287
    106  O        -17.9870    4.0090   -5.1170 O.2   135  GLU135     -0.2864
    107  CB       -19.1870    1.6620   -4.0460 C.3   135  GLU135      0.0415
    108  CG       -20.5050    1.2270   -4.4910 C.3   135  GLU135      0.1163
    109  CD       -21.4310    1.0750   -3.3140 C.2   135  GLU135      0.3649
    110  OE1      -21.2990    1.8700   -2.3350 O.co2 135  GLU135     -0.2457
    111  OE2      -22.2850    0.1790   -3.3720 O.co2 135  GLU135     -0.2457
@<TRIPOS>BOND
     1   101   100    1
     2   105   106    2
     3   105   104    1
     4   104   103    1
     5   104   107    1
     6   100   102    1
     7   100    97    1
     8    99    98    2
     9    87    86    1
    10    98   103   am
    11    98    97    1
    12   108   107    1
    13   108   109    1
    14    88    86    1
    15    97    96    1
    16    86    85    1
    17   111   109   ar
    18   109   110   ar
    19    96    91   am
    20    41    42    1
    21    85    82    1
    22    94    95    1
    23    94    93    1
    24    95    89    1
    25    82    83    1
    26    82    81    1
    27    44    43    2
    28    91    90    1
    29    91    92    2
    30    89    83   am
    31    89    90    1
    32    83    84    2
    33    42    43    1
    34    42    45    1
    35    93    90    1
    36    46    45    1
    37    46    48    1
    38    45    47    1
    39    49    50    1
    40    53    50    1
    41    53    54    1
    42    37    36    2
    43    21    20    1
    44    50    51    1
    45    56    54   ar
    46    52    51    2
    47    23    24    1
    48    54    55   ar
    49    36    35    1
    50    51    57   am
    51    22    20    1
    52    20    19    2
    53    76    75    2
    54    24    25    1
    55    24    27    1
    56    31    30    1
    57    31    32    1
    58    30    25   am
    59    75    74    1
    60    25    26    2
    61    29    27    1
    62    35    38    1
    63    35    34    1
    64    57    58    1
    65    19    18    1
    66    27    28    1
    67    18    17    1
    68    62    61    1
    69    77    74    1
    70    77    78    1
    71    80    78   ar
    72    32    34   am
    73    32    33    2
    74    74    73    1
    75    38    39    1
    76    34    40    1
    77    58    61    1
    78    58    59    1
    79    78    79   ar
    80    17    16    1
    81    61    63    1
    82    67    66    2
    83    16    13    1
    84    39    40    1
    85    64    59   am
    86    64    65    1
    87    59    60    2
    88    14    13    1
    89    14    15    2
    90    66    65    1
    91    13    12    1
    92    72    71    1
    93     5     6    1
    94     5     2    1
    95     1     2    1
    96    65    68    1
    97    68    69    1
    98    71    70    1
    99     7     6   ar
   100     7     9   ar
   101    70    69    1
   102     6     8   ar
   103     2     3    1
   104     9    11   ar
   105     8    10   ar
   106    11    10   ar
   107     3     4    2
