@<TRIPOS>MOLECULE
tmp/2o95A01.pdb
 87 84 0 0 0
SMALL
GASTEIGER

@<TRIPOS>ATOM
      1  N        -44.6630   -6.9980  -14.8880 N.3    23  PHE23      -0.1241
      2  CA       -44.8270   -6.7760  -13.4560 C.3    23  PHE23       0.1605
      3  C        -46.1320   -6.0810  -13.0800 C.2    23  PHE23       0.2264
      4  O        -46.7820   -6.4690  -12.0930 O.2    23  PHE23      -0.2867
      5  CB       -43.6620   -5.9640  -12.9250 C.3    23  PHE23       0.0534
      6  CG       -43.7110   -5.8060  -11.4620 C.ar   23  PHE23      -0.0203
      7  CD1      -43.1160   -6.7570  -10.6520 C.ar   23  PHE23      -0.0042
      8  CD2      -44.4030   -4.7390  -10.8960 C.ar   23  PHE23      -0.0042
      9  CE1      -43.1680   -6.6290   -9.2600 C.ar   23  PHE23      -0.0003
     10  CE2      -44.4820   -4.5860   -9.4900 C.ar   23  PHE23      -0.0003
     11  CZ       -43.8550   -5.5470   -8.6750 C.ar   23  PHE23      -0.0000
     12  N        -41.4410  -10.0570   -6.2670 N.3    34  ARG34      -0.1245
     13  CA       -40.5650   -9.8060   -7.4330 C.3    34  ARG34       0.1563
     14  C        -40.7460  -10.7940   -8.5640 C.2    34  ARG34       0.2260
     15  O        -41.1270  -11.9660   -8.3710 O.2    34  ARG34      -0.2867
     16  CB       -39.0910   -9.7180   -7.0720 C.3    34  ARG34       0.0307
     17  CG       -38.4980  -11.0220   -6.6720 C.3    34  ARG34       0.0489
     18  CD       -37.0510  -10.8590   -6.4940 C.3    34  ARG34       0.2205
     19  NE       -36.5190  -12.0770   -5.8870 N.pl3  34  ARG34      -0.0865
     20  CZ       -35.2320  -12.3940   -5.8280 C.cat  34  ARG34       0.5346
     21  NH1      -34.3330  -11.6060   -6.3790 N.pl3  34  ARG34       0.1354
     22  NH2      -34.8490  -13.4830   -5.2090 N.pl3  34  ARG34       0.1354
     23  N        -37.0590   -7.7910  -10.3310 N.3    97  THR97      -0.1203
     24  CA       -37.6160   -6.4900  -10.1970 C.3    97  THR97       0.1994
     25  C        -37.2280   -5.8910   -8.8280 C.2    97  THR97       0.2618
     26  O        -37.6030   -4.7980   -8.4980 O.2    97  THR97      -0.2717
     27  CB       -39.1360   -6.5540  -10.4480 C.3    97  THR97       0.1784
     28  OG1      -39.6820   -7.5820   -9.6060 O.3    97  THR97      -0.2211
     29  CG2      -39.3950   -6.9540  -11.8980 C.3    97  THR97       0.0376
     30  N        -36.4900   -6.6290   -8.0170 N.am   98  GLY98      -0.1942
     31  CA       -35.8920   -6.0340   -6.8100 C.3    98  GLY98       0.1998
     32  C        -37.0020   -5.7130   -5.8370 C.2    98  GLY98       0.2480
     33  O        -37.8740   -6.5590   -5.6350 O.2    98  GLY98      -0.2729
     34  N        -37.0190   -4.4830   -5.2800 N.am   99  PRO99      -0.2726
     35  CA       -36.1040   -3.3640   -5.5720 C.3    99  PRO99       0.1402
     36  C        -34.6160   -3.5600   -5.2670 C.2    99  PRO99       0.2269
     37  O        -33.7970   -2.8120   -5.7560 O.2    99  PRO99      -0.2865
     38  CB       -36.6360   -2.2300   -4.6880 C.3    99  PRO99       0.0296
     39  CG       -37.4590   -2.8700   -3.6890 C.3    99  PRO99       0.0237
     40  CD       -38.0490   -4.0800   -4.2940 C.3    99  PRO99       0.0939
     41  N        -31.1370   -5.5820  -11.8240 N.3   123  ILE123     -0.1245
     42  CA       -32.3690   -5.2700  -11.0940 C.3   123  ILE123      0.1561
     43  C        -33.0470   -4.1750  -11.8360 C.2   123  ILE123      0.2260
     44  O        -32.4940   -3.0970  -12.0420 O.2   123  ILE123     -0.2867
     45  CB       -32.1510   -4.9050   -9.6110 C.3   123  ILE123      0.0252
     46  CG1      -31.4890   -6.1020   -8.9140 C.3   123  ILE123      0.0019
     47  CG2      -33.5380   -4.6410   -8.9530 C.3   123  ILE123      0.0019
     48  CD1      -31.1290   -5.8160   -7.4310 C.3   123  ILE123      0.0001
     49  N        -35.9640   -1.6570  -11.8320 N.3   125  ASP125     -0.1225
     50  CA       -36.8580   -0.8590  -11.0150 C.3   125  ASP125      0.1805
     51  C        -38.1820   -0.6930  -11.7770 C.2   125  ASP125      0.2598
     52  O        -38.2360   -0.0070  -12.8010 O.2   125  ASP125     -0.2718
     53  CB       -36.1980    0.5010  -10.7770 C.3   125  ASP125      0.1424
     54  CG       -36.9670    1.4180   -9.8300 C.2   125  ASP125      0.3668
     55  OD1      -38.1750    1.2020   -9.5670 O.co2 125  ASP125     -0.2456
     56  OD2      -36.3190    2.3950   -9.3500 O.co2 125  ASP125     -0.2456
     57  N        -39.2350   -1.3070  -11.2560 N.am  126  VAL126     -0.1966
     58  CA       -40.5820   -1.2090  -11.8300 C.3   126  VAL126      0.1727
     59  C        -41.4850   -0.2430  -11.0730 C.2   126  VAL126      0.2616
     60  O        -42.6630   -0.1010  -11.4130 O.2   126  VAL126     -0.2715
     61  CB       -41.2740   -2.5970  -11.9570 C.3   126  VAL126      0.0290
     62  CG1      -40.3810   -3.5370  -12.5220 C.3   126  VAL126      0.0023
     63  CG2      -41.3800   -3.2230  -10.7070 C.3   126  VAL126      0.0023
     64  N        -40.9480    0.4310  -10.0630 N.am  127  LYS127     -0.1964
     65  CA       -41.7460    1.4220   -9.3160 C.3   127  LYS127      0.1713
     66  C        -41.8850    2.6890  -10.1310 C.2   127  LYS127      0.2458
     67  O        -40.8820    3.2680  -10.5330 O.2   127  LYS127     -0.2730
     68  CB       -41.1370    1.7600   -7.9680 C.3   127  LYS127      0.0311
     69  CG       -41.1810    0.6350   -6.9470 C.3   127  LYS127      0.0038
     70  CD       -40.5080    1.1440   -5.6600 C.3   127  LYS127      0.0206
     71  CE       -39.7030    0.0620   -4.9320 C.3   127  LYS127      0.1093
     72  NZ       -38.8990    0.6820   -3.8150 N.3   127  LYS127     -0.1314
     73  N        -43.1390    3.1300  -10.3520 N.am  128  PRO128     -0.2727
     74  CA       -43.5400    4.2680  -11.1920 C.3   128  PRO128      0.1402
     75  C        -42.8170    5.5650  -10.8390 C.2   128  PRO128      0.2269
     76  O        -42.4490    6.3410  -11.7320 O.2   128  PRO128     -0.2865
     77  CB       -45.0340    4.4110  -10.8920 C.3   128  PRO128      0.0296
     78  CG       -45.4710    3.0600  -10.4780 C.3   128  PRO128      0.0237
     79  CD       -44.3100    2.4690   -9.7350 C.3   128  PRO128      0.0939
     80  N        -39.8370    6.2870   -9.0730 N.3   130  ASP130     -0.1239
     81  CA       -38.5160    5.8850   -8.5760 C.3   130  ASP130      0.1674
     82  C        -37.3990    6.4090   -9.4790 C.2   130  ASP130      0.2266
     83  O        -37.4580    7.5340   -9.9850 O.2   130  ASP130     -0.2867
     84  CB       -38.4040    4.3640   -8.5260 C.3   130  ASP130      0.1410
     85  CG       -38.3450    3.8120   -7.0980 C.2   130  ASP130      0.3668
     86  OD1      -39.0450    4.3290   -6.1890 O.co2 130  ASP130     -0.2456
     87  OD2      -37.6010    2.8390   -6.8850 O.co2 130  ASP130     -0.2456
@<TRIPOS>BOND
     1     1     2    1
     2     2     3    1
     3     2     5    1
     4     3     4    2
     5     5     6    1
     6    52    51    2
     7    62    61    1
     8    44    43    2
     9    61    58    1
    10    61    63    1
    11    29    27    1
    12    43    42    1
    13    49    50    1
    14    58    57    1
    15    58    59    1
    16    41    42    1
    17    51    57   am
    18    51    50    1
    19    76    75    2
    20     6     8   ar
    21     6     7   ar
    22    60    59    2
    23    74    77    1
    24    74    75    1
    25    74    73    1
    26    42    45    1
    27    59    64   am
    28    50    53    1
    29     8    10   ar
    30    77    78    1
    31    53    54    1
    32     7     9   ar
    33    67    66    2
    34    78    79    1
    35    27    24    1
    36    27    28    1
    37    73    66   am
    38    73    79    1
    39    23    24    1
    40    24    25    1
    41    66    65    1
    42    64    65    1
    43    83    82    2
    44    54    55   ar
    45    54    56   ar
    46    45    47    1
    47    45    46    1
    48    10    11   ar
    49    82    81    1
    50    65    68    1
    51     9    11   ar
    52    80    81    1
    53    46    48    1
    54    25    26    2
    55    25    30   am
    56    81    84    1
    57    14    15    2
    58    14    13    1
    59    84    85    1
    60    30    31    1
    61    68    69    1
    62    13    16    1
    63    13    12    1
    64    85    87   ar
    65    85    86   ar
    66    16    17    1
    67    69    70    1
    68    31    32    1
    69    17    18    1
    70    18    19    1
    71    21    20    1
    72    19    20    2
    73    32    33    2
    74    32    34   am
    75    20    22    1
    76    37    36    2
    77    70    71    1
    78    35    34    1
    79    35    36    1
    80    35    38    1
    81    34    40    1
    82    71    72    1
    83    38    39    1
    84    40    39    1
