@<TRIPOS>MOLECULE
tmp/2o95A00.pdb
 140 138 0 0 0
SMALL
GASTEIGER

@<TRIPOS>ATOM
      1  N        -50.1360  -10.2560   -7.8720 N.3    31  ASN31      -0.1225
      2  CA       -48.7400  -10.6050   -7.6490 C.3    31  ASN31       0.1785
      3  C        -48.1920   -9.8600   -6.4410 C.2    31  ASN31       0.2597
      4  O        -48.3190   -8.6270   -6.3440 O.2    31  ASN31      -0.2718
      5  CB       -47.8650  -10.3310   -8.8530 C.3    31  ASN31       0.1169
      6  CG       -46.3890  -10.5320   -8.5350 C.2    31  ASN31       0.2627
      7  OD1      -45.5980   -9.5840   -8.5330 O.2    31  ASN31      -0.2716
      8  ND2      -46.0230  -11.7630   -8.2320 N.am   31  ASN31      -0.0877
      9  N        -47.5910  -10.6310   -5.5250 N.am   32  GLN32      -0.1965
     10  CA       -47.1320  -10.1390   -4.2370 C.3    32  GLN32       0.1733
     11  C        -45.6080  -10.0060   -4.2030 C.2    32  GLN32       0.2616
     12  O        -45.0320   -9.6070   -3.1710 O.2    32  GLN32      -0.2715
     13  CB       -47.5810  -11.1090   -3.1280 C.3    32  GLN32       0.0408
     14  CG       -49.0610  -11.0490   -2.8040 C.3    32  GLN32       0.0908
     15  CD       -49.5010   -9.6360   -2.5130 C.2    32  GLN32       0.2608
     16  OE1      -49.9620   -8.9240   -3.4140 O.2    32  GLN32      -0.2717
     17  NE2      -49.3050   -9.1950   -1.2760 N.am   32  GLN32      -0.0878
     18  N        -44.9560  -10.3160   -5.3140 N.am   33  LYS33      -0.1963
     19  CA       -43.5560  -10.6890   -5.2420 C.3    33  LYS33       0.1728
     20  C        -42.7500  -10.2050   -6.4550 C.2    33  LYS33       0.2616
     21  O        -43.2890   -9.9940   -7.5420 O.2    33  LYS33      -0.2715
     22  CB       -43.4380  -12.2200   -5.0870 C.3    33  LYS33       0.0311
     23  CG       -43.7170  -12.7210   -3.6900 C.3    33  LYS33       0.0038
     24  CD       -43.2140  -14.1360   -3.5290 C.3    33  LYS33       0.0206
     25  CE       -43.4660  -14.7040   -2.1420 C.3    33  LYS33       0.1093
     26  NZ       -42.2570  -15.5570   -1.8470 N.3    33  LYS33      -0.1314
     27  N        -41.4410  -10.0570   -6.2670 N.am   34  ARG34      -0.1977
     28  CA       -40.5650   -9.8060   -7.4330 C.3    34  ARG34       0.1597
     29  C        -40.7460  -10.7940   -8.5640 C.2    34  ARG34       0.2287
     30  O        -41.1270  -11.9660   -8.3710 O.2    34  ARG34      -0.2864
     31  CB       -39.0910   -9.7180   -7.0720 C.3    34  ARG34       0.0334
     32  CG       -38.4980  -11.0220   -6.6720 C.3    34  ARG34       0.0492
     33  CD       -37.0510  -10.8590   -6.4940 C.3    34  ARG34       0.2205
     34  NE       -36.5190  -12.0770   -5.8870 N.pl3  34  ARG34      -0.0865
     35  CZ       -35.2320  -12.3940   -5.8280 C.cat  34  ARG34       0.5346
     36  NH1      -34.3330  -11.6060   -6.3790 N.pl3  34  ARG34       0.1354
     37  NH2      -34.8490  -13.4830   -5.2090 N.pl3  34  ARG34       0.1354
     38  N        -41.0290  -18.6380  -14.5410 N.3    57  PRO57      -0.2102
     39  CA       -41.6350  -19.0700  -13.2970 C.3    57  PRO57       0.1504
     40  C        -40.5810  -19.1590  -12.1910 C.2    57  PRO57       0.2576
     41  O        -39.5310  -19.7530  -12.3530 O.2    57  PRO57      -0.2718
     42  CB       -42.2010  -20.4310  -13.6560 C.3    57  PRO57       0.0282
     43  CG       -42.5600  -20.2940  -15.1300 C.3    57  PRO57       0.0208
     44  CD       -41.2970  -19.5970  -15.6220 C.3    57  PRO57       0.0893
     45  N        -40.8590  -18.5200  -11.0790 N.am   58  PHE58      -0.1963
     46  CA       -39.8670  -18.4520  -10.0320 C.3    58  PHE58       0.1771
     47  C        -40.5880  -18.4100   -8.7260 C.2    58  PHE58       0.2620
     48  O        -41.5420  -17.6780   -8.6130 O.2    58  PHE58      -0.2715
     49  CB       -39.0400  -17.1740  -10.1820 C.3    58  PHE58       0.0574
     50  CG       -38.0500  -16.9770   -9.0590 C.ar   58  PHE58      -0.0200
     51  CD1      -36.8440  -17.6510   -9.0370 C.ar   58  PHE58      -0.0042
     52  CD2      -38.3780  -16.1280   -7.9970 C.ar   58  PHE58      -0.0042
     53  CE1      -35.9360  -17.4330   -7.9720 C.ar   58  PHE58      -0.0003
     54  CE2      -37.4820  -15.9490   -6.9290 C.ar   58  PHE58      -0.0003
     55  CZ       -36.2760  -16.6020   -6.9310 C.ar   58  PHE58      -0.0000
     56  N        -40.1000  -19.2000   -7.7700 N.am   59  ASP59      -0.1957
     57  CA       -40.6960  -19.2390   -6.4690 C.3    59  ASP59       0.1840
     58  C        -39.5870  -19.1650   -5.4690 C.2    59  ASP59       0.2621
     59  O        -38.5010  -19.6830   -5.6850 O.2    59  ASP59      -0.2715
     60  CB       -41.4590  -20.5210   -6.2850 C.3    59  ASP59       0.1450
     61  CG       -42.7960  -20.4980   -7.0160 C.2    59  ASP59       0.3671
     62  OD1      -43.6960  -19.7410   -6.6440 O.co2  59  ASP59      -0.2456
     63  OD2      -42.9410  -21.2220   -7.9820 O.co2  59  ASP59      -0.2456
     64  N        -39.8800  -18.5180   -4.3620 N.am   60  GLU60      -0.1977
     65  CA       -38.8930  -18.4310   -3.3270 C.3    60  GLU60       0.1602
     66  C        -39.6700  -18.3660   -2.0160 C.2    60  GLU60       0.2287
     67  O        -40.7650  -17.7960   -1.9380 O.2    60  GLU60      -0.2864
     68  CB       -37.9590  -17.2390   -3.5300 C.3    60  GLU60       0.0415
     69  CG       -38.6220  -15.9150   -3.5070 C.3    60  GLU60       0.1163
     70  CD       -37.6510  -14.8200   -3.8220 C.2    60  GLU60       0.3649
     71  OE1      -36.4430  -15.0000   -3.5980 O.co2  60  GLU60      -0.2457
     72  OE2      -38.0840  -13.7810   -4.3050 O.co2  60  GLU60      -0.2457
     73  N        -40.6720  -17.2390    1.5080 N.3    62  ASP62      -0.1239
     74  CA       -40.6480  -15.8850    2.0080 C.3    62  ASP62       0.1674
     75  C        -40.1140  -15.8680    3.4400 C.2    62  ASP62       0.2266
     76  O        -40.0030  -14.8210    4.0380 O.2    62  ASP62      -0.2867
     77  CB       -42.0610  -15.2720    1.9320 C.3    62  ASP62       0.1410
     78  CG       -43.1010  -16.0520    2.7420 C.2    62  ASP62       0.3668
     79  OD1      -44.2810  -15.6340    2.7610 O.co2  62  ASP62      -0.2456
     80  OD2      -42.7640  -17.0910    3.3560 O.co2  62  ASP62      -0.2456
     81  N        -36.8880  -21.7890   -6.4740 N.3    69  PHE69      -0.1241
     82  CA       -36.7380  -22.5590   -7.6610 C.3    69  PHE69       0.1605
     83  C        -37.0330  -21.6810   -8.8840 C.2    69  PHE69       0.2264
     84  O        -37.9610  -20.8540   -8.9160 O.2    69  PHE69      -0.2867
     85  CB       -37.7070  -23.7440   -7.6200 C.3    69  PHE69       0.0534
     86  CG       -37.7380  -24.5730   -8.8410 C.ar   69  PHE69      -0.0203
     87  CD1      -36.8170  -25.6070   -9.0300 C.ar   69  PHE69      -0.0042
     88  CD2      -38.7070  -24.3540   -9.8290 C.ar   69  PHE69      -0.0042
     89  CE1      -36.8480  -26.4060  -10.1860 C.ar   69  PHE69      -0.0003
     90  CE2      -38.7320  -25.1320  -10.9580 C.ar   69  PHE69      -0.0003
     91  CZ       -37.8260  -26.1960  -11.1230 C.ar   69  PHE69      -0.0000
     92  N        -37.4530  -22.8920  -13.1100 N.3    71  ASP71      -0.1239
     93  CA       -37.3580  -24.0160  -13.9740 C.3    71  ASP71       0.1674
     94  C        -36.4100  -23.6650  -15.0850 C.2    71  ASP71       0.2266
     95  O        -36.7150  -22.8220  -15.9760 O.2    71  ASP71      -0.2867
     96  CB       -38.6920  -24.5760  -14.5970 C.3    71  ASP71       0.1410
     97  CG       -38.4990  -25.9370  -15.1610 C.2    71  ASP71       0.3668
     98  OD1      -37.4250  -26.5590  -14.9300 O.co2  71  ASP71      -0.2456
     99  OD2      -39.4290  -26.4730  -15.7910 O.co2  71  ASP71      -0.2456
    100  N        -35.7340  -25.7470  -17.2780 N.3    73  ASP73      -0.1225
    101  CA       -36.3380  -26.3060  -18.4930 C.3    73  ASP73       0.1805
    102  C        -37.1480  -25.2130  -19.2090 C.2    73  ASP73       0.2597
    103  O        -37.1110  -25.0980  -20.4250 O.2    73  ASP73      -0.2718
    104  CB       -37.2500  -27.4960  -18.1440 C.3    73  ASP73       0.1424
    105  CG       -36.4720  -28.6620  -17.5500 C.2    73  ASP73       0.3668
    106  OD1      -35.5070  -29.0650  -18.2360 O.co2  73  ASP73      -0.2456
    107  OD2      -36.8090  -29.1310  -16.4060 O.co2  73  ASP73      -0.2456
    108  N        -37.8720  -24.4360  -18.4360 N.am   74  TYR74      -0.1976
    109  CA       -38.6980  -23.3600  -18.9360 C.3    74  TYR74       0.1639
    110  C        -37.7800  -22.3670  -19.6010 C.2    74  TYR74       0.2290
    111  O        -37.9710  -21.9590  -20.7700 O.2    74  TYR74      -0.2864
    112  CB       -39.5080  -22.7030  -17.7770 C.3    74  TYR74       0.0560
    113  CG       -40.3930  -21.5490  -18.2910 C.ar   74  TYR74      -0.0198
    114  CD1      -41.7510  -21.7280  -18.4570 C.ar   74  TYR74      -0.0009
    115  CD2      -39.8300  -20.3130  -18.6030 C.ar   74  TYR74      -0.0009
    116  CE1      -42.5550  -20.6990  -18.9090 C.ar   74  TYR74       0.0417
    117  CE2      -40.5920  -19.2860  -19.0760 C.ar   74  TYR74       0.0417
    118  CZ       -41.9380  -19.4710  -19.2540 C.ar   74  TYR74       0.1957
    119  OH       -42.7020  -18.4310  -19.7080 O.3    74  TYR74      -0.2866
    120  N        -36.4900   -6.6290   -8.0170 N.3    98  GLY98      -0.1210
    121  CA       -35.8920   -6.0340   -6.8100 C.3    98  GLY98       0.1940
    122  C        -37.0020   -5.7130   -5.8370 C.2    98  GLY98       0.2453
    123  O        -37.8740   -6.5590   -5.6350 O.2    98  GLY98      -0.2732
    124  N        -37.0190   -4.4830   -5.2800 N.am   99  PRO99      -0.2728
    125  CA       -36.1040   -3.3640   -5.5720 C.3    99  PRO99       0.1401
    126  C        -34.6160   -3.5600   -5.2670 C.2    99  PRO99       0.2269
    127  O        -33.7970   -2.8120   -5.7560 O.2    99  PRO99      -0.2865
    128  CB       -36.6360   -2.2300   -4.6880 C.3    99  PRO99       0.0296
    129  CG       -37.4590   -2.8700   -3.6890 C.3    99  PRO99       0.0237
    130  CD       -38.0490   -4.0800   -4.2940 C.3    99  PRO99       0.0939
    131  N        -31.5540   -9.6790   -3.2590 N.3   102  HIS102     -0.1241
    132  CA       -32.0560  -10.6740   -2.2840 C.3   102  HIS102      0.1621
    133  C        -30.9190  -11.6240   -1.9760 C.2   102  HIS102      0.2264
    134  O        -30.0190  -11.8220   -2.7930 O.2   102  HIS102     -0.2867
    135  CB       -33.2040  -11.4780   -2.8850 C.3   102  HIS102      0.0745
    136  CG       -34.4540  -10.6980   -3.0220 C.ar  102  HIS102      0.0817
    137  ND1      -35.6670  -11.1470   -2.5980 N.ar  102  HIS102     -0.2268
    138  CD2      -34.6870   -9.4780   -3.5190 C.ar  102  HIS102      0.1154
    139  CE1      -36.5800  -10.2200   -2.7740 C.ar  102  HIS102      0.1986
    140  NE2      -36.0110   -9.1990   -3.3470 N.ar  102  HIS102     -0.2212
@<TRIPOS>BOND
     1   111   110    2
     2   103   102    2
     3   119   118    1
     4   110   109    1
     5   118   117   ar
     6   118   116   ar
     7   102   101    1
     8   102   108   am
     9   117   115   ar
    10   109   108    1
    11   109   112    1
    12   116   114   ar
    13   115   113   ar
    14   101   104    1
    15   101   100    1
    16   114   113   ar
    17   113   112    1
    18   106   105   ar
    19   104   105    1
    20   105   107   ar
    21    95    94    2
    22    99    97   ar
    23    44    43    1
    24    44    38    1
    25    97    98   ar
    26    97    96    1
    27    43    42    1
    28    94    93    1
    29    96    93    1
    30    38    39    1
    31    93    92    1
    32    42    39    1
    33    39    40    1
    34    41    40    2
    35    40    45   am
    36    91    90   ar
    37    91    89   ar
    38    45    46    1
    39    90    88   ar
    40    89    87   ar
    41    49    46    1
    42    49    50    1
    43    46    47    1
    44    88    86   ar
    45    50    51   ar
    46    50    52   ar
    47    51    53   ar
    48    87    86   ar
    49    84    83    2
    50    83    82    1
    51     5     6    1
    52     5     2    1
    53    86    85    1
    54    47    48    2
    55    47    56   am
    56    29    30    2
    57    29    28    1
    58     6     7    2
    59     6     8   am
    60   120   121    1
    61    52    54   ar
    62    63    61   ar
    63    53    55   ar
    64     1     2    1
    65    56    57    1
    66    82    85    1
    67    82    81    1
    68     2     3    1
    69    21    20    2
    70    28    31    1
    71    28    27    1
    72    31    32    1
    73    61    62   ar
    74    61    60    1
    75    55    54   ar
    76   121   122    1
    77    32    33    1
    78    33    34    1
    79    57    60    1
    80    57    58    1
    81    20    27   am
    82    20    19    1
    83     3     4    2
    84     3     9   am
    85    36    35    1
    86    34    35    2
    87   122   123    2
    88   122   124   am
    89    35    37    1
    90   127   126    2
    91    59    58    2
    92   125   124    1
    93   125   126    1
    94   125   128    1
    95     9    10    1
    96    58    64   am
    97    18    19    1
    98    18    11   am
    99   124   130    1
   100    19    22    1
   101    22    23    1
   102   128   129    1
   103    64    65    1
   104    72    70   ar
   105   130   129    1
   106    10    11    1
   107    10    13    1
   108    11    12    2
   109    70    71   ar
   110    70    69    1
   111    23    24    1
   112    68    69    1
   113    68    65    1
   114    24    25    1
   115   138   140   ar
   116   138   136   ar
   117    16    15    2
   118   140   139   ar
   119    65    66    1
   120   131   132    1
   121    13    14    1
   122   136   135    1
   123   136   137   ar
   124   135   132    1
   125    14    15    1
   126   134   133    2
   127   139   137   ar
   128    15    17   am
   129   132   133    1
   130    25    26    1
   131    66    67    2
   132    73    74    1
   133    77    74    1
   134    77    78    1
   135    74    75    1
   136    78    79   ar
   137    78    80   ar
   138    75    76    2
