@<TRIPOS>MOLECULE
tmp/2o9iA00.pdb
 211 200 0 0 0
SMALL
GASTEIGER

@<TRIPOS>ATOM
      1  N          9.0170   41.0190   17.9530 N.3    52  LEU52      -0.1245
      2  CA        10.3610   40.5320   18.2290 C.3    52  LEU52       0.1561
      3  C         11.1640   41.6090   18.9110 C.2    52  LEU52       0.2260
      4  O         12.2590   41.3670   19.4030 O.2    52  LEU52      -0.2867
      5  CB        11.0480   40.1560   16.9220 C.3    52  LEU52       0.0270
      6  CG        10.5080   38.8880   16.2740 C.3    52  LEU52       0.0019
      7  CD1       10.9390   38.8210   14.8280 C.3    52  LEU52       0.0001
      8  CD2       11.0150   37.6850   17.0440 C.3    52  LEU52       0.0001
      9  N         12.4360   41.4820   22.9240 N.3    55  LEU55      -0.1245
     10  CA        12.7030   40.0980   23.2710 C.3    55  LEU55       0.1561
     11  C         14.1080   39.8820   22.7590 C.2    55  LEU55       0.2260
     12  O         14.6840   38.7940   22.8650 O.2    55  LEU55      -0.2867
     13  CB        11.7330   39.1700   22.5460 C.3    55  LEU55       0.0270
     14  CG        10.2360   39.2550   22.8670 C.3    55  LEU55       0.0019
     15  CD1        9.5860   37.9590   22.3950 C.3    55  LEU55       0.0001
     16  CD2        9.9840   39.4500   24.3580 C.3    55  LEU55       0.0001
     17  N         17.8200   39.4870   22.3630 N.3    57  VAL57      -0.1245
     18  CA        18.8380   39.0180   23.2910 C.3    57  VAL57       0.1561
     19  C         20.2090   38.8850   22.6410 C.2    57  VAL57       0.2260
     20  O         20.3370   38.8340   21.4210 O.2    57  VAL57      -0.2867
     21  CB        18.4760   37.6340   23.9340 C.3    57  VAL57       0.0252
     22  CG1       17.2990   37.7880   24.8720 C.3    57  VAL57       0.0019
     23  CG2       18.1930   36.5940   22.8520 C.3    57  VAL57       0.0019
     24  N         16.3430   33.6160   15.3590 N.3    86  LEU86      -0.1245
     25  CA        15.1570   32.7390   15.3940 C.3    86  LEU86       0.1561
     26  C         15.4070   31.2320   15.2570 C.2    86  LEU86       0.2260
     27  O         14.8150   30.4300   15.9820 O.2    86  LEU86      -0.2867
     28  CB        14.1540   33.1480   14.3190 C.3    86  LEU86       0.0270
     29  CG        13.2410   34.3580   14.5690 C.3    86  LEU86       0.0019
     30  CD1       12.3100   34.5670   13.3640 C.3    86  LEU86       0.0001
     31  CD2       12.4030   34.1480   15.8110 C.3    86  LEU86       0.0001
     32  N         16.8610   29.8950   18.4730 N.3    89  MET89      -0.1245
     33  CA        15.8250   29.8940   19.4840 C.3    89  MET89       0.1570
     34  C         14.9180   28.6810   19.2480 C.2    89  MET89       0.2261
     35  O         14.5630   27.9550   20.1710 O.2    89  MET89      -0.2867
     36  CB        15.0230   31.1840   19.3810 C.3    89  MET89       0.0387
     37  CG        15.8280   32.4210   19.7370 C.3    89  MET89       0.0595
     38  SD        16.2060   32.5830   21.4960 S.3    89  MET89      -0.1393
     39  CE        17.7560   31.8160   21.5530 C.3    89  MET89       0.0692
     40  N         16.4170   25.8370   20.7940 N.3    92  MET92      -0.1230
     41  CA        16.4170   25.8630   22.2570 C.3    92  MET92       0.1702
     42  C         15.0200   25.4510   22.7280 C.2    92  MET92       0.2593
     43  O         14.8630   24.5580   23.5640 O.2    92  MET92      -0.2718
     44  CB        16.7190   27.2740   22.7730 C.3    92  MET92       0.0401
     45  CG        16.5340   27.4060   24.2650 C.3    92  MET92       0.0596
     46  SD        17.5570   26.1950   25.1390 S.3    92  MET92      -0.1393
     47  CE        18.9920   27.2120   25.5520 C.3    92  MET92       0.0692
     48  N         14.0180   26.1380   22.1830 N.am   93  SER93      -0.1952
     49  CA        12.6210   25.8990   22.4850 C.3    93  SER93       0.1924
     50  C         12.2600   24.4230   22.2630 C.2    93  SER93       0.2314
     51  O         11.5950   23.7970   23.0940 O.2    93  SER93      -0.2863
     52  CB        11.7760   26.7980   21.5920 C.3    93  SER93       0.2116
     53  OG        10.4170   26.4240   21.6220 O.3    93  SER93      -0.2180
     54  N          4.6520   25.7930   26.4090 N.3   127  PHE127     -0.1241
     55  CA         5.2090   27.1430   26.5640 C.3   127  PHE127      0.1605
     56  C          5.2460   27.5480   28.0520 C.2   127  PHE127      0.2264
     57  O          6.2820   27.9460   28.5850 O.2   127  PHE127     -0.2867
     58  CB         4.3590   28.1440   25.7800 C.3   127  PHE127      0.0534
     59  CG         4.7730   29.5700   25.9780 C.ar  127  PHE127     -0.0203
     60  CD1        5.8590   30.0970   25.2840 C.ar  127  PHE127     -0.0042
     61  CD2        4.1080   30.3770   26.9100 C.ar  127  PHE127     -0.0042
     62  CE1        6.2860   31.3930   25.5120 C.ar  127  PHE127     -0.0003
     63  CE2        4.5280   31.6840   27.1480 C.ar  127  PHE127     -0.0003
     64  CZ         5.6200   32.1930   26.4490 C.ar  127  PHE127     -0.0000
     65  N          8.3940   28.2850   30.3400 N.3   131  GLN131     -0.1245
     66  CA         8.6970   29.5630   30.9740 C.3   131  GLN131      0.1566
     67  C          9.0350   29.3610   32.4520 C.2   131  GLN131      0.2260
     68  O          9.9310   30.0030   33.0050 O.2   131  GLN131     -0.2867
     69  CB         7.5140   30.5220   30.8310 C.3   131  GLN131      0.0367
     70  CG         7.2820   30.9740   29.4180 C.3   131  GLN131      0.0905
     71  CD         8.5450   31.5220   28.7990 C.2   131  GLN131      0.2608
     72  OE1        9.1150   32.4910   29.3010 O.2   131  GLN131     -0.2717
     73  NE2        9.0020   30.8990   27.7070 N.am  131  GLN131     -0.0878
     74  N         12.6040   28.0150   32.6320 N.3   134  PHE134     -0.1241
     75  CA        13.5660   29.0670   32.3210 C.3   134  PHE134      0.1605
     76  C         13.7310   30.0590   33.4600 C.2   134  PHE134      0.2264
     77  O         14.8290   30.5490   33.7130 O.2   134  PHE134     -0.2867
     78  CB        13.1640   29.8010   31.0440 C.3   134  PHE134      0.0534
     79  CG        13.7710   29.2170   29.8170 C.ar  134  PHE134     -0.0203
     80  CD1       12.9740   28.8550   28.7300 C.ar  134  PHE134     -0.0042
     81  CD2       15.1480   28.9850   29.7580 C.ar  134  PHE134     -0.0042
     82  CE1       13.5390   28.2650   27.5980 C.ar  134  PHE134     -0.0003
     83  CE2       15.7270   28.3940   28.6380 C.ar  134  PHE134     -0.0003
     84  CZ        14.9170   28.0320   27.5490 C.ar  134  PHE134     -0.0000
     85  N         19.4520   34.8900   30.9650 N.3   145  TRP145     -0.1241
     86  CA        19.0990   33.5120   31.1810 C.3   145  TRP145      0.1605
     87  C         20.3700   32.6800   31.1040 C.2   145  TRP145      0.2264
     88  O         20.9200   32.4600   30.0290 O.2   145  TRP145     -0.2867
     89  CB        18.0780   33.1020   30.1350 C.3   145  TRP145      0.0550
     90  CG        16.7210   33.5610   30.5000 C.ar  145  TRP145      0.0003
     91  CD1       15.8650   32.9580   31.3750 C.ar  145  TRP145      0.0946
     92  CD2       16.0450   34.7080   29.9970 C.ar  145  TRP145      0.0152
     93  NE1       14.6860   33.6650   31.4510 N.ar  145  TRP145     -0.2442
     94  CE2       14.7720   34.7520   30.6170 C.ar  145  TRP145      0.0810
     95  CE3       16.3900   35.7240   29.0940 C.ar  145  TRP145      0.0012
     96  CZ2       13.8300   35.7510   30.3370 C.ar  145  TRP145      0.0191
     97  CZ3       15.4550   36.7250   28.8090 C.ar  145  TRP145      0.0001
     98  CH2       14.1940   36.7350   29.4370 C.ar  145  TRP145      0.0015
     99  N         21.7790   33.9360   27.5910 N.3   152  TYR152     -0.1241
    100  CA        21.0700   34.9280   26.7970 C.3   152  TYR152      0.1605
    101  C         20.9070   36.1840   27.6300 C.2   152  TYR152      0.2264
    102  O         20.3650   36.1500   28.7390 O.2   152  TYR152     -0.2867
    103  CB        19.7020   34.3950   26.3380 C.3   152  TYR152      0.0534
    104  CG        19.7990   33.0540   25.6380 C.ar  152  TYR152     -0.0201
    105  CD1       19.8000   31.8680   26.3720 C.ar  152  TYR152     -0.0009
    106  CD2       19.9320   32.9690   24.2530 C.ar  152  TYR152     -0.0009
    107  CE1       19.9290   30.6340   25.7580 C.ar  152  TYR152      0.0417
    108  CE2       20.0600   31.7320   23.6190 C.ar  152  TYR152      0.0417
    109  CZ        20.0560   30.5650   24.3820 C.ar  152  TYR152      0.1957
    110  OH        20.1630   29.3320   23.7760 O.3   152  TYR152     -0.2866
    111  N         19.6410   40.3080   27.9650 N.3   154  LEU154     -0.1245
    112  CA        18.6580   41.2730   27.4870 C.3   154  LEU154      0.1561
    113  C         19.3400   42.5410   26.9800 C.2   154  LEU154      0.2260
    114  O         20.2930   43.0170   27.5860 O.2   154  LEU154     -0.2867
    115  CB        17.6780   41.6110   28.6240 C.3   154  LEU154      0.0270
    116  CG        16.2830   40.9730   28.6170 C.3   154  LEU154      0.0019
    117  CD1       16.3000   39.6720   27.8420 C.3   154  LEU154      0.0001
    118  CD2       15.8090   40.7530   30.0340 C.3   154  LEU154      0.0001
    119  N          5.8780   39.1830   29.0440 N.3   169  MET169     -0.1230
    120  CA         6.8740   38.1230   29.1840 C.3   169  MET169      0.1702
    121  C          8.0190   38.5390   30.0940 C.2   169  MET169      0.2592
    122  O          8.4200   37.8060   30.9880 O.2   169  MET169     -0.2718
    123  CB         7.4260   37.7300   27.8100 C.3   169  MET169      0.0401
    124  CG         6.6600   36.6030   27.1550 C.3   169  MET169      0.0596
    125  SD         7.2590   36.2430   25.5160 S.3   169  MET169     -0.1393
    126  CE         5.8510   36.8300   24.5570 C.3   169  MET169      0.0692
    127  N          8.5430   39.7260   29.8540 N.am  170  LEU170     -0.1980
    128  CA         9.6300   40.2500   30.6530 C.3   170  LEU170      0.1596
    129  C          9.1850   40.5140   32.0960 C.2   170  LEU170      0.2287
    130  O          9.8890   40.1920   33.0520 O.2   170  LEU170     -0.2864
    131  CB        10.1540   41.5300   29.9980 C.3   170  LEU170      0.0297
    132  CG        11.3930   41.3700   29.1120 C.3   170  LEU170      0.0022
    133  CD1       12.5980   41.8080   29.9190 C.3   170  LEU170      0.0001
    134  CD2       11.5690   39.9150   28.6280 C.3   170  LEU170      0.0001
    135  N          8.8320   37.1750   34.1960 N.3   173  HIS173     -0.1241
    136  CA        10.0700   36.6230   34.7490 C.3   173  HIS173      0.1621
    137  C         10.5590   37.3830   35.9860 C.2   173  HIS173      0.2264
    138  O         10.9780   36.7740   36.9670 O.2   173  HIS173     -0.2867
    139  CB        11.1750   36.6140   33.6860 C.3   173  HIS173      0.0745
    140  CG        11.1000   35.4530   32.7350 C.ar  173  HIS173      0.0817
    141  ND1       11.3900   34.1560   33.1070 N.ar  173  HIS173     -0.2268
    142  CD2       10.7740   35.4020   31.4200 C.ar  173  HIS173      0.1154
    143  CE1       11.2470   33.3570   32.0630 C.ar  173  HIS173      0.1986
    144  NE2       10.8750   34.0860   31.0300 N.ar  173  HIS173     -0.2212
    145  N          1.4900   34.9890   23.0770 N.3   253  HIS253     -0.1241
    146  CA         2.7340   34.5240   22.5050 C.3   253  HIS253      0.1621
    147  C          2.5000   33.6040   21.3160 C.2   253  HIS253      0.2264
    148  O          3.2780   33.6070   20.3540 O.2   253  HIS253     -0.2867
    149  CB         3.5660   33.8170   23.5680 C.3   253  HIS253      0.0745
    150  CG         4.6990   33.0260   23.0010 C.ar  253  HIS253      0.0817
    151  ND1        4.5540   31.7120   22.6080 N.ar  253  HIS253     -0.2268
    152  CD2        5.9600   33.3800   22.6770 C.ar  253  HIS253      0.1154
    153  CE1        5.6800   31.2910   22.0620 C.ar  253  HIS253      0.1986
    154  NE2        6.5500   32.2840   22.0910 N.ar  253  HIS253     -0.2212
    155  N          1.5470   35.7560   18.6950 N.3   256  ARG256     -0.1231
    156  CA         2.7660   36.4760   18.3480 C.3   256  ARG256      0.1694
    157  C          3.6390   35.6220   17.4170 C.2   256  ARG256      0.2591
    158  O          4.1230   36.0890   16.3800 O.2   256  ARG256     -0.2718
    159  CB         3.5680   36.8280   19.6090 C.3   256  ARG256      0.0321
    160  CG         4.8790   37.5220   19.2910 C.3   256  ARG256      0.0489
    161  CD         5.7980   37.5910   20.4820 C.3   256  ARG256      0.2205
    162  NE         5.1940   38.3080   21.6020 N.pl3 256  ARG256     -0.0865
    163  CZ         5.8160   39.2430   22.3120 C.cat 256  ARG256      0.5346
    164  NH1        7.0660   39.5810   22.0100 N.pl3 256  ARG256      0.1354
    165  NH2        5.1920   39.8330   23.3240 N.pl3 256  ARG256      0.1354
    166  N          3.8330   34.3640   17.7970 N.am  257  LEU257     -0.1980
    167  CA         4.6680   33.4750   17.0120 C.3   257  LEU257      0.1596
    168  C          4.0820   33.1870   15.6260 C.2   257  LEU257      0.2287
    169  O          4.8250   33.0570   14.6480 O.2   257  LEU257     -0.2864
    170  CB         4.9210   32.1630   17.7780 C.3   257  LEU257      0.0297
    171  CG         5.9040   31.1780   17.1310 C.3   257  LEU257      0.0022
    172  CD1        6.6740   30.4350   18.2100 C.3   257  LEU257      0.0001
    173  CD2        5.1650   30.2170   16.2120 C.3   257  LEU257      0.0001
    174  N          4.8660   35.8810   13.2110 N.3   260  ILE260     -0.1245
    175  CA         6.2490   35.7340   12.7960 C.3   260  ILE260      0.1561
    176  C          6.3960   34.5880   11.7990 C.2   260  ILE260      0.2260
    177  O          6.9590   34.7610   10.7170 O.2   260  ILE260     -0.2867
    178  CB         7.1670   35.4720   14.0030 C.3   260  ILE260      0.0252
    179  CG1        7.0850   36.6450   14.9760 C.3   260  ILE260      0.0019
    180  CG2        8.6000   35.3240   13.5400 C.3   260  ILE260      0.0019
    181  CD1        7.9370   36.4760   16.2150 C.3   260  ILE260      0.0001
    182  N          9.9380   29.5180   10.5430 N.3   266  PHE266     -0.1241
    183  CA        11.1360   29.0830   11.2530 C.3   266  PHE266      0.1605
    184  C         10.8730   27.9480   12.2300 C.2   266  PHE266      0.2264
    185  O         11.7760   27.1550   12.5180 O.2   266  PHE266     -0.2867
    186  CB        11.7140   30.2630   12.0360 C.3   266  PHE266      0.0534
    187  CG        10.8760   30.6570   13.2180 C.ar  266  PHE266     -0.0203
    188  CD1       11.3020   30.3940   14.5120 C.ar  266  PHE266     -0.0042
    189  CD2        9.6310   31.2380   13.0360 C.ar  266  PHE266     -0.0042
    190  CE1       10.4990   30.6970   15.6030 C.ar  266  PHE266     -0.0003
    191  CE2        8.8170   31.5440   14.1250 C.ar  266  PHE266     -0.0003
    192  CZ         9.2560   31.2710   15.4110 C.ar  266  PHE266     -0.0000
    193  N          7.5100   22.2100   17.1370 N.3   271  MET271     -0.1245
    194  CA         6.8910   23.4890   17.4880 C.3   271  MET271      0.1570
    195  C          5.5800   23.6140   16.7220 C.2   271  MET271      0.2261
    196  O          4.5600   23.9990   17.2890 O.2   271  MET271     -0.2867
    197  CB         7.8150   24.6590   17.1340 C.3   271  MET271      0.0387
    198  CG         9.0800   24.7060   17.9720 C.3   271  MET271      0.0595
    199  SD        10.2920   25.9210   17.4090 S.3   271  MET271     -0.1393
    200  CE         9.6100   27.4530   18.1060 C.3   271  MET271      0.0692
    201  N          2.0960   24.4580   18.3840 N.3   275  PHE275     -0.1241
    202  CA         1.4370   25.7360   18.1650 C.3   275  PHE275      0.1605
    203  C          0.3560   25.6640   17.1020 C.2   275  PHE275      0.2264
    204  O         -0.2970   26.6730   16.7970 O.2   275  PHE275     -0.2867
    205  CB         2.4750   26.8070   17.8100 C.3   275  PHE275      0.0534
    206  CG         3.3950   27.1380   18.9440 C.ar  275  PHE275     -0.0203
    207  CD1        4.7180   26.7360   18.9320 C.ar  275  PHE275     -0.0042
    208  CD2        2.9210   27.8230   20.0520 C.ar  275  PHE275     -0.0042
    209  CE1        5.5550   27.0100   20.0040 C.ar  275  PHE275     -0.0003
    210  CE2        3.7570   28.0990   21.1330 C.ar  275  PHE275     -0.0003
    211  CZ         5.0750   27.6900   21.1040 C.ar  275  PHE275     -0.0000
@<TRIPOS>BOND
     1   182   183    1
     2   177   176    2
     3   183   186    1
     4   183   184    1
     5   176   175    1
     6   186   187    1
     7   184   185    2
     8   175   174    1
     9   175   178    1
    10   189   187   ar
    11   189   191   ar
    12   187   188   ar
    13    30    29    1
    14   180   178    1
    15   178   179    1
    16   191   192   ar
    17    28    29    1
    18    28    25    1
    19   188   190   ar
    20    29    31    1
    21   169   168    2
    22     7     6    1
    23   179   181    1
    24    26    25    1
    25    26    27    2
    26    24    25    1
    27   192   190   ar
    28   168   167    1
    29   173   171    1
    30     6     5    1
    31     6     8    1
    32   158   157    2
    33   195   196    2
    34   195   194    1
    35   204   203    2
    36     5     2    1
    37   167   170    1
    38   167   166    1
    39   203   202    1
    40   171   170    1
    41   171   172    1
    42   197   194    1
    43   197   198    1
    44   193   194    1
    45   199   198    1
    46   199   200    1
    47   157   166   am
    48   157   156    1
    49   205   202    1
    50   205   206    1
    51     1     2    1
    52   202   201    1
    53     2     3    1
    54   156   155    1
    55   156   159    1
    56    32    33    1
    57     3     4    2
    58   207   206   ar
    59   207   209   ar
    60   206   208   ar
    61    34    33    1
    62    34    35    2
    63   160   159    1
    64   160   161    1
    65    36    33    1
    66    36    37    1
    67    37    38    1
    68   209   211   ar
    69   208   210   ar
    70   148   147    2
    71   161   162    1
    72    40    41    1
    73   211   210   ar
    74   147   146    1
    75    20    19    2
    76    38    39    1
    77    52    53    1
    78    52    49    1
    79   162   163    2
    80   164   163    1
    81   153   154   ar
    82   153   151   ar
    83   154   152   ar
    84    48    49    1
    85    48    42   am
    86    41    42    1
    87    41    44    1
    88    50    49    1
    89    50    51    2
    90   163   165    1
    91    17    18    1
    92    15    14    1
    93   146   145    1
    94   146   149    1
    95    13    14    1
    96    13    10    1
    97   151   150   ar
    98    19    18    1
    99   152   150   ar
   100    42    43    2
   101    11    12    2
   102    11    10    1
   103    44    45    1
   104    23    21    1
   105    14    16    1
   106     9    10    1
   107   150   149    1
   108    18    21    1
   109   108   106   ar
   110   108   109   ar
   111   110   109    1
   112    21    22    1
   113   106   104   ar
   114    45    46    1
   115   109   107   ar
   116   126   125    1
   117    46    47    1
   118    60    62   ar
   119    60    59   ar
   120    62    64   ar
   121   125   124    1
   122   104   103    1
   123   104   105   ar
   124   107   105   ar
   125    58    59    1
   126    58    55    1
   127    59    61   ar
   128   103   100    1
   129    54    55    1
   130    64    63   ar
   131    55    56    1
   132   100    99    1
   133   100   101    1
   134    61    63   ar
   135   113   112    1
   136   113   114    2
   137   124   123    1
   138   112   111    1
   139   112   115    1
   140    84    82   ar
   141    84    83   ar
   142    82    80   ar
   143   101   102    2
   144    73    71   am
   145   123   120    1
   146   117   116    1
   147    56    57    2
   148   116   115    1
   149   116   118    1
   150   134   132    1
   151    83    81   ar
   152    80    79   ar
   153    71    72    2
   154    71    70    1
   155    97    95   ar
   156    97    98   ar
   157   119   120    1
   158    95    92   ar
   159   132   133    1
   160   132   131    1
   161   120   121    1
   162    70    69    1
   163    98    96   ar
   164    81    79   ar
   165    79    78    1
   166   127   121   am
   167   127   128    1
   168    92    90   ar
   169    92    94   ar
   170   131   128    1
   171    88    87    2
   172   121   122    2
   173    89    90    1
   174    89    86    1
   175    96    94   ar
   176    65    66    1
   177    90    91   ar
   178    94    93   ar
   179   128   129    1
   180    69    66    1
   181    85    86    1
   182    66    67    1
   183   144   142   ar
   184   144   143   ar
   185    78    75    1
   186    87    86    1
   187    91    93   ar
   188   142   140   ar
   189   143   141   ar
   190   129   130    2
   191    75    74    1
   192    75    76    1
   193    67    68    2
   194   140   141   ar
   195   140   139    1
   196    76    77    2
   197   139   136    1
   198   135   136    1
   199   136   137    1
   200   137   138    2
