@<TRIPOS>MOLECULE
tmp/2o9rA00.pdb
 244 240 0 0 0
SMALL
GASTEIGER

@<TRIPOS>ATOM
      1  N         73.0990   29.7900   48.0240 N.3    19  GLN19      -0.1245
      2  CA        73.6090   28.8740   47.0190 C.3    19  GLN19       0.1566
      3  C         75.1300   28.6760   46.9910 C.2    19  GLN19       0.2260
      4  O         75.6080   27.6430   46.5020 O.2    19  GLN19      -0.2867
      5  CB        73.1160   29.3140   45.6360 C.3    19  GLN19       0.0367
      6  CG        71.6110   29.1630   45.4640 C.3    19  GLN19       0.0905
      7  CD        71.1500   29.5110   44.0630 C.2    19  GLN19       0.2608
      8  OE1       70.7980   30.6590   43.7840 O.2    19  GLN19      -0.2717
      9  NE2       71.1600   28.5210   43.1670 N.am   19  GLN19      -0.0878
     10  N         66.9770   37.0270   48.2950 N.3   119  HIS119     -0.1226
     11  CA        67.1130   35.9620   47.3080 C.3   119  HIS119      0.1752
     12  C         66.6700   34.6210   47.9090 C.2   119  HIS119      0.2596
     13  O         67.4200   33.6370   47.9150 O.2   119  HIS119     -0.2718
     14  CB        68.5590   35.8790   46.8070 C.3   119  HIS119      0.0759
     15  CG        68.6990   35.2720   45.4440 C.ar  119  HIS119      0.0818
     16  ND1       68.4080   33.9500   45.1790 N.ar  119  HIS119     -0.2268
     17  CD2       69.0980   35.8110   44.2680 C.ar  119  HIS119      0.1154
     18  CE1       68.6210   33.7030   43.8990 C.ar  119  HIS119      0.1986
     19  NE2       69.0410   34.8150   43.3240 N.ar  119  HIS119     -0.2212
     20  N         65.4460   34.6350   48.4420 N.am  120  TRP120     -0.1976
     21  CA        64.7480   33.4880   49.0260 C.3   120  TRP120      0.1640
     22  C         65.1650   32.9310   50.3880 C.2   120  TRP120      0.2290
     23  O         64.4510   32.0920   50.9280 O.2   120  TRP120     -0.2864
     24  CB        64.7060   32.3240   48.0220 C.3   120  TRP120      0.0576
     25  CG        64.3820   32.7000   46.5760 C.ar  120  TRP120      0.0006
     26  CD1       63.9040   33.8960   46.1120 C.ar  120  TRP120      0.0946
     27  CD2       64.5300   31.8620   45.4220 C.ar  120  TRP120      0.0152
     28  NE1       63.7500   33.8550   44.7410 N.ar  120  TRP120     -0.2442
     29  CE2       64.1270   32.6180   44.2940 C.ar  120  TRP120      0.0810
     30  CE3       64.9650   30.5430   45.2300 C.ar  120  TRP120      0.0012
     31  CZ2       64.1470   32.1010   42.9970 C.ar  120  TRP120      0.0191
     32  CZ3       64.9840   30.0280   43.9350 C.ar  120  TRP120      0.0001
     33  CH2       64.5760   30.8110   42.8350 C.ar  120  TRP120      0.0015
     34  N         62.8160   37.3020   41.9260 N.3   164  GLU164     -0.1245
     35  CA        61.7390   36.3720   41.5990 C.3   164  GLU164      0.1567
     36  C         60.6550   36.2150   42.6550 C.2   164  GLU164      0.2260
     37  O         60.5900   35.2060   43.3510 O.2   164  GLU164     -0.2867
     38  CB        62.3250   35.0010   41.2540 C.3   164  GLU164      0.0388
     39  CG        63.3470   35.1080   40.1480 C.3   164  GLU164      0.1160
     40  CD        63.7910   33.7820   39.6090 C.2   164  GLU164      0.3649
     41  OE1       63.2390   32.7460   40.0140 O.co2 164  GLU164     -0.2457
     42  OE2       64.6930   33.7790   38.7620 O.co2 164  GLU164     -0.2457
     43  N         57.7570   35.5190   42.2230 N.3   166  TYR166     -0.1227
     44  CA        57.0060   34.3450   41.7900 C.3   166  TYR166      0.1736
     45  C         57.4310   33.0840   42.5320 C.2   166  TYR166      0.2595
     46  O         56.6230   32.4410   43.2060 O.2   166  TYR166     -0.2718
     47  CB        57.1740   34.1510   40.2730 C.3   166  TYR166      0.0548
     48  CG        56.6860   32.8130   39.7620 C.ar  166  TYR166     -0.0200
     49  CD1       55.3420   32.6000   39.4650 C.ar  166  TYR166     -0.0009
     50  CD2       57.5710   31.7430   39.6170 C.ar  166  TYR166     -0.0009
     51  CE1       54.8880   31.3510   39.0390 C.ar  166  TYR166      0.0417
     52  CE2       57.1300   30.4950   39.1950 C.ar  166  TYR166      0.0417
     53  CZ        55.7880   30.3050   38.9070 C.ar  166  TYR166      0.1957
     54  OH        55.3580   29.0680   38.4880 O.3   166  TYR166     -0.2866
     55  N         58.7040   32.7340   42.4120 N.am  167  CYS167     -0.1970
     56  CA        59.2250   31.5450   43.0630 C.3   167  CYS167      0.1712
     57  C         59.0290   31.5330   44.5800 C.2   167  CYS167      0.2296
     58  O         58.5710   30.5480   45.1440 O.2   167  CYS167     -0.2864
     59  CB        60.7110   31.3940   42.7370 C.3   167  CYS167      0.0983
     60  SG        61.0620   30.9760   41.0110 S.3   167  CYS167     -0.0798
     61  N         55.8130   29.0360   44.4160 N.3   171  LEU171     -0.1245
     62  CA        56.4990   27.7720   44.6800 C.3   171  LEU171      0.1561
     63  C         56.7220   27.5080   46.1630 C.2   171  LEU171      0.2260
     64  O         56.6720   26.3540   46.6060 O.2   171  LEU171     -0.2867
     65  CB        57.8570   27.7220   43.9670 C.3   171  LEU171      0.0270
     66  CG        57.9020   27.9050   42.4540 C.3   171  LEU171      0.0019
     67  CD1       59.3020   27.5650   41.9330 C.3   171  LEU171      0.0001
     68  CD2       56.8490   27.0150   41.8120 C.3   171  LEU171      0.0001
     69  N         57.0580   23.4360   46.3470 N.3   177  GLU177     -0.1231
     70  CA        58.3310   23.1070   45.7110 C.3   177  GLU177      0.1699
     71  C         59.5860   23.8330   46.1920 C.2   177  GLU177      0.2592
     72  O         60.7000   23.3570   45.9860 O.2   177  GLU177     -0.2718
     73  CB        58.1750   23.2620   44.2030 C.3   177  GLU177      0.0402
     74  CG        57.1500   22.2860   43.6410 C.3   177  GLU177      0.1161
     75  CD        56.8640   22.5030   42.1710 C.2   177  GLU177      0.3649
     76  OE1       56.2920   23.5650   41.8330 O.co2 177  GLU177     -0.2457
     77  OE2       57.2130   21.6120   41.3620 O.co2 177  GLU177     -0.2457
     78  N         59.4050   24.9800   46.8310 N.am  178  HIS178     -0.1976
     79  CA        60.5170   25.7520   47.3590 C.3   178  HIS178      0.1656
     80  C         60.1840   26.0320   48.8090 C.2   178  HIS178      0.2291
     81  O         59.0280   25.8900   49.2040 O.2   178  HIS178     -0.2864
     82  CB        60.6720   27.0660   46.5920 C.3   178  HIS178      0.0771
     83  CG        61.3740   26.9210   45.2780 C.ar  178  HIS178      0.0820
     84  ND1       61.8120   28.0060   44.5500 N.ar  178  HIS178     -0.2267
     85  CD2       61.7370   25.8230   44.5750 C.ar  178  HIS178      0.1154
     86  CE1       62.4200   27.5850   43.4570 C.ar  178  HIS178      0.1986
     87  NE2       62.3890   26.2640   43.4490 N.ar  178  HIS178     -0.2212
     88  N         61.4020   36.7680   37.2360 N.3   220  ASN220     -0.1240
     89  CA        61.7530   35.6910   36.3340 C.3   220  ASN220      0.1653
     90  C         60.5600   35.6560   35.3950 C.2   220  ASN220      0.2266
     91  O         59.4180   35.7490   35.8320 O.2   220  ASN220     -0.2867
     92  CB        61.8970   34.3600   37.0710 C.3   220  ASN220      0.1155
     93  CG        60.6680   33.9930   37.8640 C.2   220  ASN220      0.2627
     94  OD1       60.3100   34.6700   38.8270 O.2   220  ASN220     -0.2716
     95  ND2       60.0140   32.9100   37.4660 N.am  220  ASN220     -0.0877
     96  N         58.8990   33.8950   31.5710 N.3   222  GLU222     -0.1245
     97  CA        59.0270   32.8780   30.5450 C.3   222  GLU222      0.1567
     98  C         58.0420   33.0970   29.4220 C.2   222  GLU222      0.2260
     99  O         56.8820   33.4620   29.6480 O.2   222  GLU222     -0.2867
    100  CB        58.8290   31.4760   31.1150 C.3   222  GLU222      0.0388
    101  CG        57.4730   31.2070   31.7020 C.3   222  GLU222      0.1160
    102  CD        57.2650   29.7300   31.9710 C.2   222  GLU222      0.3649
    103  OE1       58.2070   29.0770   32.4720 O.co2 222  GLU222     -0.2457
    104  OE2       56.1600   29.2220   31.6850 O.co2 222  GLU222     -0.2457
    105  N         48.7750   30.6650   31.8140 N.3   240  ARG240     -0.1245
    106  CA        50.1410   30.4510   32.2830 C.3   240  ARG240      0.1563
    107  C         50.8840   31.7830   32.2740 C.2   240  ARG240      0.2260
    108  O         51.5960   32.1090   33.2240 O.2   240  ARG240     -0.2867
    109  CB        50.8780   29.4490   31.3920 C.3   240  ARG240      0.0307
    110  CG        51.9730   28.6600   32.1120 C.3   240  ARG240      0.0489
    111  CD        53.0790   29.5660   32.6070 C.3   240  ARG240      0.2205
    112  NE        54.1690   28.8500   33.2680 N.pl3 240  ARG240     -0.0865
    113  CZ        54.0430   28.1780   34.4050 C.cat 240  ARG240      0.5346
    114  NH1       55.0910   27.5640   34.9330 N.pl3 240  ARG240      0.1354
    115  NH2       52.8700   28.1190   35.0160 N.pl3 240  ARG240      0.1354
    116  N         52.7340   33.4240   35.8260 N.3   244  ILE244     -0.1245
    117  CA        54.1280   33.7910   36.0940 C.3   244  ILE244      0.1561
    118  C         54.5140   35.2450   35.7960 C.2   244  ILE244      0.2260
    119  O         55.2050   35.8830   36.5910 O.2   244  ILE244     -0.2867
    120  CB        55.1110   32.8950   35.2900 C.3   244  ILE244      0.0252
    121  CG1       54.8500   31.4210   35.5860 C.3   244  ILE244      0.0019
    122  CG2       56.5440   33.2130   35.6750 C.3   244  ILE244      0.0019
    123  CD1       55.9530   30.4840   35.0750 C.3   244  ILE244      0.0001
    124  N         65.1210   31.7110   31.1480 N.3   295  TYR295     -0.1227
    125  CA        65.7800   30.4260   30.9600 C.3   295  TYR295      0.1736
    126  C         65.2130   29.6010   29.8260 C.2   295  TYR295      0.2596
    127  O         65.9510   29.0890   28.9840 O.2   295  TYR295     -0.2718
    128  CB        65.6920   29.6070   32.2410 C.3   295  TYR295      0.0548
    129  CG        66.4390   30.2240   33.3930 C.ar  295  TYR295     -0.0200
    130  CD1       67.8250   30.1000   33.4960 C.ar  295  TYR295     -0.0009
    131  CD2       65.7620   30.9440   34.3830 C.ar  295  TYR295     -0.0009
    132  CE1       68.5220   30.6780   34.5590 C.ar  295  TYR295      0.0417
    133  CE2       66.4500   31.5280   35.4510 C.ar  295  TYR295      0.0417
    134  CZ        67.8280   31.3900   35.5280 C.ar  295  TYR295      0.1957
    135  OH        68.5100   31.9760   36.5610 O.3   295  TYR295     -0.2866
    136  N         63.8950   29.4800   29.7950 N.am  296  THR296     -0.1953
    137  CA        63.2640   28.6600   28.7840 C.3   296  THR296      0.1897
    138  C         61.8570   29.1610   28.4740 C.2   296  THR296      0.2313
    139  O         61.3620   30.0960   29.1110 O.2   296  THR296     -0.2863
    140  CB        63.2200   27.2170   29.3070 C.3   296  THR296      0.1794
    141  OG1       62.6980   26.3360   28.3090 O.3   296  THR296     -0.2208
    142  CG2       62.3730   27.1530   30.5560 C.3   296  THR296      0.0378
    143  N         52.0480   21.4130   30.7190 N.3   313  GLN313     -0.1245
    144  CA        53.2320   21.8380   29.9970 C.3   313  GLN313      0.1566
    145  C         53.6550   20.6870   29.0990 C.2   313  GLN313      0.2260
    146  O         53.8120   19.5540   29.5640 O.2   313  GLN313     -0.2867
    147  CB        54.3450   22.1730   30.9910 C.3   313  GLN313      0.0367
    148  CG        55.5870   22.8090   30.3860 C.3   313  GLN313      0.0905
    149  CD        56.5950   23.2260   31.4580 C.2   313  GLN313      0.2608
    150  OE1       56.2610   23.9770   32.3880 O.2   313  GLN313     -0.2717
    151  NE2       57.8320   22.7370   31.3370 N.am  313  GLN313     -0.0878
    152  N         68.5080   19.9420   32.8050 N.3   323  MET323     -0.1245
    153  CA        67.3100   20.0500   33.6310 C.3   323  MET323      0.1570
    154  C         66.0530   19.7350   32.8490 C.2   323  MET323      0.2261
    155  O         64.9470   19.8260   33.3860 O.2   323  MET323     -0.2867
    156  CB        67.1800   21.4510   34.2230 C.3   323  MET323      0.0387
    157  CG        68.3300   21.8340   35.1120 C.3   323  MET323      0.0595
    158  SD        68.0140   23.3310   36.0080 S.3   323  MET323     -0.1393
    159  CE        68.5550   22.8760   37.6240 C.3   323  MET323      0.0692
    160  N         65.1880   21.4440   30.4310 N.3   325  TRP325     -0.1241
    161  CA        64.7160   22.7360   29.9600 C.3   325  TRP325      0.1605
    162  C         65.0660   22.9210   28.4890 C.2   325  TRP325      0.2264
    163  O         66.2360   22.8680   28.1070 O.2   325  TRP325     -0.2867
    164  CB        65.3440   23.8660   30.7770 C.3   325  TRP325      0.0550
    165  CG        64.9130   23.9250   32.2190 C.ar  325  TRP325      0.0003
    166  CD1       64.1080   23.0350   32.8890 C.ar  325  TRP325      0.0946
    167  CD2       65.3020   24.9140   33.1800 C.ar  325  TRP325      0.0152
    168  NE1       63.9790   23.4130   34.2090 N.ar  325  TRP325     -0.2442
    169  CE2       64.7000   24.5610   34.4140 C.ar  325  TRP325      0.0810
    170  CE3       66.1020   26.0660   33.1200 C.ar  325  TRP325      0.0012
    171  CZ2       64.8770   25.3200   35.5800 C.ar  325  TRP325      0.0191
    172  CZ3       66.2760   26.8210   34.2760 C.ar  325  TRP325      0.0001
    173  CH2       65.6650   26.4430   35.4910 C.ar  325  TRP325      0.0015
    174  N         69.9090   37.3860   35.2840 N.3   353  GLU353     -0.1245
    175  CA        70.1940   35.9510   35.2640 C.3   353  GLU353      0.1567
    176  C         69.8350   35.2680   33.9440 C.2   353  GLU353      0.2260
    177  O         68.7130   35.3810   33.4560 O.2   353  GLU353     -0.2867
    178  CB        69.4710   35.2080   36.3970 C.3   353  GLU353      0.0388
    179  CG        69.8600   35.5970   37.8220 C.3   353  GLU353      0.1160
    180  CD        69.2740   34.6480   38.8540 C.2   353  GLU353      0.3649
    181  OE1       69.3070   34.9440   40.0710 O.co2 353  GLU353     -0.2457
    182  OE2       68.7820   33.5820   38.4440 O.co2 353  GLU353     -0.2457
    183  N         74.1630   33.8350   34.4630 N.3   399  TRP399     -0.1241
    184  CA        73.8240   33.2220   35.7280 C.3   399  TRP399      0.1605
    185  C         74.6670   32.0450   36.1400 C.2   399  TRP399      0.2264
    186  O         74.8310   31.0530   35.4190 O.2   399  TRP399     -0.2867
    187  CB        72.3570   32.8100   35.8270 C.3   399  TRP399      0.0550
    188  CG        72.1450   31.9070   37.0340 C.ar  399  TRP399      0.0003
    189  CD1       71.9650   30.5560   37.0170 C.ar  399  TRP399      0.0946
    190  CD2       72.2110   32.2800   38.4180 C.ar  399  TRP399      0.0152
    191  NE1       71.9210   30.0600   38.2980 N.ar  399  TRP399     -0.2442
    192  CE2       72.0670   31.0970   39.1790 C.ar  399  TRP399      0.0810
    193  CE3       72.3790   33.4980   39.0910 C.ar  399  TRP399      0.0012
    194  CZ2       72.0850   31.0930   40.5780 C.ar  399  TRP399      0.0191
    195  CZ3       72.3960   33.4950   40.4900 C.ar  399  TRP399      0.0001
    196  CH2       72.2490   32.2990   41.2140 C.ar  399  TRP399      0.0015
    197  N         71.7440   24.0070   43.7210 N.3   406  GLU406     -0.1231
    198  CA        70.6530   24.3740   42.8250 C.3   406  GLU406      0.1699
    199  C         69.2550   24.1210   43.3560 C.2   406  GLU406      0.2592
    200  O         68.4450   23.4360   42.7350 O.2   406  GLU406     -0.2718
    201  CB        70.8340   23.7030   41.4600 C.3   406  GLU406      0.0402
    202  CG        71.8850   24.4080   40.6170 C.3   406  GLU406      0.1161
    203  CD        71.5740   25.8890   40.4330 C.2   406  GLU406      0.3649
    204  OE1       72.4980   26.6720   40.1000 O.co2 406  GLU406     -0.2457
    205  OE2       70.3950   26.2680   40.6170 O.co2 406  GLU406     -0.2457
    206  N         68.9870   24.7100   44.5130 N.am  407  TRP407     -0.1976
    207  CA        67.6970   24.6160   45.1690 C.3   407  TRP407      0.1640
    208  C         67.1420   23.1880   45.2470 C.2   407  TRP407      0.2290
    209  O         67.7960   22.2940   45.7940 O.2   407  TRP407     -0.2864
    210  CB        66.7060   25.5690   44.4770 C.3   407  TRP407      0.0576
    211  CG        67.1800   27.0100   44.4450 C.ar  407  TRP407      0.0006
    212  CD1       67.4550   27.7610   43.3340 C.ar  407  TRP407      0.0946
    213  CD2       67.4650   27.8520   45.5740 C.ar  407  TRP407      0.0152
    214  NE1       67.8930   29.0150   43.7010 N.ar  407  TRP407     -0.2442
    215  CE2       67.9100   29.0980   45.0660 C.ar  407  TRP407      0.0810
    216  CE3       67.3910   27.6750   46.9620 C.ar  407  TRP407      0.0012
    217  CZ2       68.2780   30.1620   45.8970 C.ar  407  TRP407      0.0191
    218  CZ3       67.7560   28.7310   47.7920 C.ar  407  TRP407      0.0001
    219  CH2       68.1960   29.9620   47.2550 C.ar  407  TRP407      0.0015
    220  N         66.9720   20.9910   43.1100 N.3   409  TRP409     -0.1241
    221  CA        67.7980   20.0480   42.3740 C.3   409  TRP409      0.1605
    222  C         69.0310   19.6860   43.1960 C.2   409  TRP409      0.2264
    223  O         69.7060   18.6930   42.9150 O.2   409  TRP409     -0.2867
    224  CB        68.2460   20.6470   41.0520 C.3   409  TRP409      0.0550
    225  CG        67.1400   21.0300   40.1500 C.ar  409  TRP409      0.0003
    226  CD1       66.4670   22.2130   40.1370 C.ar  409  TRP409      0.0946
    227  CD2       66.6160   20.2590   39.0690 C.ar  409  TRP409      0.0152
    228  NE1       65.5610   22.2350   39.1040 N.ar  409  TRP409     -0.2442
    229  CE2       65.6320   21.0470   38.4320 C.ar  409  TRP409      0.0810
    230  CE3       66.8830   18.9800   38.5730 C.ar  409  TRP409      0.0012
    231  CZ2       64.9170   20.5990   37.3260 C.ar  409  TRP409      0.0191
    232  CZ3       66.1750   18.5330   37.4760 C.ar  409  TRP409      0.0001
    233  CH2       65.2010   19.3410   36.8610 C.ar  409  TRP409      0.0015
    234  N         75.2270   24.9580   37.1220 N.3   415  PHE415     -0.1241
    235  CA        74.9120   26.1640   36.3610 C.3   415  PHE415      0.1605
    236  C         76.0780   27.1160   36.1990 C.2   415  PHE415      0.2264
    237  O         75.9650   28.1210   35.5020 O.2   415  PHE415     -0.2867
    238  CB        73.7900   26.9380   37.0540 C.3   415  PHE415      0.0534
    239  CG        72.4580   26.8450   36.3670 C.ar  415  PHE415     -0.0203
    240  CD1       71.5400   25.8580   36.7230 C.ar  415  PHE415     -0.0042
    241  CD2       72.1090   27.7610   35.3830 C.ar  415  PHE415     -0.0042
    242  CE1       70.2950   25.7920   36.1130 C.ar  415  PHE415     -0.0003
    243  CE2       70.8650   27.7010   34.7680 C.ar  415  PHE415     -0.0003
    244  CZ        69.9560   26.7160   35.1330 C.ar  415  PHE415     -0.0000
@<TRIPOS>BOND
     1   163   162    2
     2   141   140    1
     3   138   137    1
     4   138   139    2
     5   162   161    1
     6   137   140    1
     7   137   136    1
     8   127   126    2
     9   145   146    2
    10   145   144    1
    11   140   142    1
    12    98    99    2
    13    98    97    1
    14   136   126   am
    15   126   125    1
    16   161   160    1
    17   161   164    1
    18   144   143    1
    19   144   147    1
    20   148   147    1
    21   148   149    1
    22    97   100    1
    23    97    96    1
    24   164   165    1
    25   125   124    1
    26   125   128    1
    27   100   101    1
    28   151   149   am
    29   109   110    1
    30   109   106    1
    31   149   150    2
    32   104   102   ar
    33   101   102    1
    34   105   106    1
    35   102   103   ar
    36   110   111    1
    37   165   166   ar
    38   165   167   ar
    39   128   129    1
    40   107   106    1
    41   107   108    2
    42   111   112    1
    43   152   153    1
    44   154   155    2
    45   154   153    1
    46   166   168   ar
    47   170   167   ar
    48   170   172   ar
    49   167   169   ar
    50   112   113    2
    51   129   130   ar
    52   129   131   ar
    53   177   176    2
    54   130   132   ar
    55   153   156    1
    56   176   175    1
    57   168   169   ar
    58   156   157    1
    59   172   173   ar
    60   131   133   ar
    61   113   114    1
    62   113   115    1
    63   169   171   ar
    64   183   184    1
    65   132   134   ar
    66   243   244   ar
    67   243   241   ar
    68   123   121    1
    69   157   158    1
    70   244   242   ar
    71   175   174    1
    72   175   178    1
    73   120   121    1
    74   120   122    1
    75   120   117    1
    76   241   239   ar
    77    90    91    2
    78    90    89    1
    79   186   185    2
    80   133   134   ar
    81   173   171   ar
    82   237   236    2
    83   134   135    1
    84   184   187    1
    85   184   185    1
    86   118   117    1
    87   118   119    2
    88   116   117    1
    89   187   188    1
    90   158   159    1
    91   242   240   ar
    92   236   235    1
    93    89    92    1
    94    89    88    1
    95   235   238    1
    96   235   234    1
    97   239   240   ar
    98   239   238    1
    99   178   179    1
   100   233   231   ar
   101   233   232   ar
   102   189   188   ar
   103   189   191   ar
   104   188   190   ar
   105    92    93    1
   106   231   229   ar
   107    95    93   am
   108   232   230   ar
   109   179   180    1
   110    93    94    2
   111   191   192   ar
   112   190   193   ar
   113   190   192   ar
   114   229   227   ar
   115   229   228   ar
   116   182   180   ar
   117    54    53    1
   118   230   227   ar
   119    42    40   ar
   120   180   181   ar
   121    53    51   ar
   122    53    52   ar
   123    51    49   ar
   124   227   225   ar
   125   193   195   ar
   126   228   226   ar
   127   192   194   ar
   128    52    50   ar
   129    49    48   ar
   130    40    41   ar
   131    40    39    1
   132    50    48   ar
   133    48    47    1
   134   204   203   ar
   135   226   225   ar
   136    39    38    1
   137   225   224    1
   138    47    44    1
   139   203   205   ar
   140   203   202    1
   141   195   196   ar
   142   194   196   ar
   143   202   201    1
   144    60    59    1
   145   224   221    1
   146    38    35    1
   147    77    75   ar
   148   201   198    1
   149    35    34    1
   150    35    36    1
   151    44    43    1
   152    44    45    1
   153    68    66    1
   154    76    75   ar
   155    67    66    1
   156    75    74    1
   157   221   220    1
   158   221   222    1
   159    55    45   am
   160    55    56    1
   161    66    65    1
   162    45    46    2
   163    36    37    2
   164   200   199    2
   165    59    56    1
   166   198   199    1
   167   198   197    1
   168    33    31   ar
   169    33    32   ar
   170   223   222    2
   171    31    29   ar
   172    56    57    1
   173     9     7   am
   174    19    18   ar
   175    19    17   ar
   176   212   214   ar
   177   212   211   ar
   178   199   206   am
   179    87    86   ar
   180    87    85   ar
   181    86    84   ar
   182    74    73    1
   183   214   215   ar
   184     8     7    2
   185    18    16   ar
   186    32    30   ar
   187    65    62    1
   188     7     6    1
   189    73    70    1
   190    17    15   ar
   191    29    28   ar
   192    29    27   ar
   193    61    62    1
   194   211   210    1
   195   211   213   ar
   196   210   207    1
   197   206   207    1
   198    84    83   ar
   199    85    83   ar
   200    57    58    2
   201    62    63    1
   202    28    26   ar
   203   215   213   ar
   204   215   217   ar
   205   207   208    1
   206    16    15   ar
   207    30    27   ar
   208   208   209    2
   209    83    82    1
   210    27    25   ar
   211    15    14    1
   212     6     5    1
   213   213   216   ar
   214     5     2    1
   215    70    71    1
   216    70    69    1
   217   217   219   ar
   218    72    71    2
   219    26    25   ar
   220    63    64    2
   221    71    78   am
   222     4     3    2
   223    25    24    1
   224    82    79    1
   225    14    11    1
   226    78    79    1
   227   216   218   ar
   228     3     2    1
   229     2     1    1
   230   219   218   ar
   231    11    12    1
   232    11    10    1
   233    79    80    1
   234    12    13    2
   235    12    20   am
   236    24    21    1
   237    20    21    1
   238    80    81    2
   239    21    22    1
   240    22    23    2
