@<TRIPOS>MOLECULE
tmp/2o9tA00.pdb
 169 169 0 0 0
SMALL
GASTEIGER

@<TRIPOS>ATOM
      1  N         73.1180   29.7170   48.1990 N.3    19  GLN19      -0.1245
      2  CA        73.6910   28.8030   47.2350 C.3    19  GLN19       0.1566
      3  C         75.2280   28.6920   47.2310 C.2    19  GLN19       0.2260
      4  O         75.7630   27.6670   46.8110 O.2    19  GLN19      -0.2867
      5  CB        73.2140   29.1700   45.8230 C.3    19  GLN19       0.0367
      6  CG        71.6740   29.2160   45.6560 C.3    19  GLN19       0.0905
      7  CD        71.2520   29.5300   44.2350 C.2    19  GLN19       0.2608
      8  OE1       71.0520   30.6890   43.8730 O.2    19  GLN19      -0.2717
      9  NE2       71.1130   28.4850   43.4160 N.am   19  GLN19      -0.0878
     10  N         67.1640   36.9630   48.4840 N.3   119  HIS119     -0.1226
     11  CA        67.2940   35.8570   47.5440 C.3   119  HIS119      0.1752
     12  C         66.8100   34.5250   48.1260 C.2   119  HIS119      0.2596
     13  O         67.5190   33.5160   48.0970 O.2   119  HIS119     -0.2718
     14  CB        68.7310   35.7490   47.0300 C.3   119  HIS119      0.0759
     15  CG        68.8340   35.2310   45.6260 C.ar  119  HIS119      0.0818
     16  ND1       68.3400   34.0000   45.2460 N.ar  119  HIS119     -0.2268
     17  CD2       69.4130   35.7560   44.5210 C.ar  119  HIS119      0.1154
     18  CE1       68.6140   33.7870   43.9720 C.ar  119  HIS119      0.1986
     19  NE2       69.2670   34.8360   43.5090 N.ar  119  HIS119     -0.2212
     20  N         65.5920   34.5770   48.6670 N.am  120  TRP120     -0.1976
     21  CA        64.8600   33.4330   49.2070 C.3   120  TRP120      0.1640
     22  C         65.2530   32.8800   50.5670 C.2   120  TRP120      0.2290
     23  O         64.5350   32.0440   51.1230 O.2   120  TRP120     -0.2864
     24  CB        64.8660   32.2930   48.1740 C.3   120  TRP120      0.0576
     25  CG        64.5740   32.7250   46.7440 C.ar  120  TRP120      0.0006
     26  CD1       64.1450   33.9560   46.3130 C.ar  120  TRP120      0.0946
     27  CD2       64.6460   31.8970   45.5730 C.ar  120  TRP120      0.0152
     28  NE1       63.9470   33.9380   44.9400 N.ar  120  TRP120     -0.2442
     29  CE2       64.2560   32.6880   44.4650 C.ar  120  TRP120      0.0810
     30  CE3       65.0170   30.5620   45.3530 C.ar  120  TRP120      0.0012
     31  CZ2       64.2080   32.1850   43.1580 C.ar  120  TRP120      0.0191
     32  CZ3       64.9730   30.0560   44.0550 C.ar  120  TRP120      0.0001
     33  CH2       64.5740   30.8740   42.9680 C.ar  120  TRP120      0.0015
     34  N         64.6000   39.0950   44.2650 N.3   163  ASN163     -0.1225
     35  CA        64.9160   38.2340   43.1280 C.3   163  ASN163      0.1785
     36  C         63.7580   37.2590   43.0070 C.2   163  ASN163      0.2597
     37  O         63.4470   36.5430   43.9570 O.2   163  ASN163     -0.2718
     38  CB        66.2050   37.4340   43.3460 C.3   163  ASN163      0.1169
     39  CG        66.3780   36.3170   42.3160 C.2   163  ASN163      0.2627
     40  OD1       65.7640   35.2510   42.4240 O.2   163  ASN163     -0.2716
     41  ND2       67.1930   36.5620   41.3190 N.am  163  ASN163     -0.0877
     42  N         63.1010   37.2700   41.8530 N.am  164  GLU164     -0.1979
     43  CA        61.9950   36.3600   41.5690 C.3   164  GLU164      0.1602
     44  C         60.9010   36.2350   42.6320 C.2   164  GLU164      0.2287
     45  O         60.7940   35.1940   43.2980 O.2   164  GLU164     -0.2864
     46  CB        62.5780   34.9720   41.2900 C.3   164  GLU164      0.0415
     47  CG        63.8270   35.0240   40.4270 C.3   164  GLU164      0.1163
     48  CD        64.0620   33.7310   39.6930 C.2   164  GLU164      0.3649
     49  OE1       63.6810   32.6740   40.2310 O.co2 164  GLU164     -0.2457
     50  OE2       64.6350   33.7640   38.5930 O.co2 164  GLU164     -0.2457
     51  N         58.8950   32.9260   42.5900 N.3   167  CYS167     -0.1235
     52  CA        59.3800   31.6850   43.1940 C.3   167  CYS167      0.1677
     53  C         59.1530   31.6230   44.7020 C.2   167  CYS167      0.2270
     54  O         58.6710   30.6280   45.2030 O.2   167  CYS167     -0.2867
     55  CB        60.8630   31.4780   42.8630 C.3   167  CYS167      0.0956
     56  SG        61.1520   30.9400   41.1410 S.3   167  CYS167     -0.0801
     57  N         61.5240   36.8720   37.3350 N.3   220  ASN220     -0.1240
     58  CA        61.8280   35.8270   36.3760 C.3   220  ASN220      0.1653
     59  C         60.6250   35.9010   35.4460 C.2   220  ASN220      0.2266
     60  O         59.5080   36.1850   35.8870 O.2   220  ASN220     -0.2867
     61  CB        61.8880   34.4320   37.0170 C.3   220  ASN220      0.1155
     62  CG        60.6250   34.0830   37.7860 C.2   220  ASN220      0.2627
     63  OD1       60.3340   34.6780   38.8120 O.2   220  ASN220     -0.2716
     64  ND2       59.8770   33.1100   37.2910 N.am  220  ASN220     -0.0877
     65  N         65.4530   31.5260   31.2850 N.3   295  TYR295     -0.1241
     66  CA        66.1310   30.2650   31.0300 C.3   295  TYR295      0.1605
     67  C         65.4640   29.5300   29.8910 C.2   295  TYR295      0.2264
     68  O         66.1260   28.9790   29.0100 O.2   295  TYR295     -0.2867
     69  CB        66.1210   29.4020   32.2960 C.3   295  TYR295      0.0534
     70  CG        66.9930   29.9660   33.3870 C.ar  295  TYR295     -0.0201
     71  CD1       68.3520   29.6710   33.4400 C.ar  295  TYR295     -0.0009
     72  CD2       66.4740   30.8560   34.3290 C.ar  295  TYR295     -0.0009
     73  CE1       69.1750   30.2460   34.4090 C.ar  295  TYR295      0.0417
     74  CE2       67.2860   31.4370   35.2990 C.ar  295  TYR295      0.0417
     75  CZ        68.6310   31.1300   35.3310 C.ar  295  TYR295      0.1957
     76  OH        69.4350   31.6900   36.2910 O.3   295  TYR295     -0.2866
     77  N         68.6930   19.7640   33.0090 N.3   323  MET323     -0.1245
     78  CA        67.5300   19.8780   33.8830 C.3   323  MET323      0.1570
     79  C         66.2480   19.6290   33.1080 C.2   323  MET323      0.2261
     80  O         65.1490   19.7880   33.6380 O.2   323  MET323     -0.2867
     81  CB        67.4680   21.2740   34.5070 C.3   323  MET323      0.0387
     82  CG        68.5340   21.5060   35.5550 C.3   323  MET323      0.0595
     83  SD        68.6610   23.2080   36.0160 S.3   323  MET323     -0.1393
     84  CE        67.6180   23.2380   37.4330 C.3   323  MET323      0.0692
     85  N         65.3490   21.4080   30.6770 N.3   325  TRP325     -0.1241
     86  CA        64.8680   22.6850   30.1550 C.3   325  TRP325      0.1605
     87  C         65.2370   22.8500   28.6790 C.2   325  TRP325      0.2264
     88  O         66.4000   22.7390   28.3060 O.2   325  TRP325     -0.2867
     89  CB        65.4270   23.8700   30.9620 C.3   325  TRP325      0.0550
     90  CG        64.9980   23.8890   32.4150 C.ar  325  TRP325      0.0003
     91  CD1       64.1240   23.0310   33.0230 C.ar  325  TRP325      0.0946
     92  CD2       65.4490   24.7870   33.4380 C.ar  325  TRP325      0.0152
     93  NE1       64.0060   23.3340   34.3580 N.ar  325  TRP325     -0.2442
     94  CE2       64.8110   24.4100   34.6440 C.ar  325  TRP325      0.0810
     95  CE3       66.3340   25.8780   33.4570 C.ar  325  TRP325      0.0012
     96  CZ2       65.0260   25.0730   35.8560 C.ar  325  TRP325      0.0191
     97  CZ3       66.5500   26.5430   34.6610 C.ar  325  TRP325      0.0001
     98  CH2       65.8960   26.1350   35.8440 C.ar  325  TRP325      0.0015
     99  N         70.0430   37.2290   35.4210 N.3   353  GLU353     -0.1245
    100  CA        70.3550   35.8060   35.3840 C.3   353  GLU353      0.1567
    101  C         69.9340   35.1400   34.0820 C.2   353  GLU353      0.2260
    102  O         68.8160   35.3330   33.5890 O.2   353  GLU353     -0.2867
    103  CB        69.7000   35.0370   36.5430 C.3   353  GLU353      0.0388
    104  CG        69.9370   35.6340   37.9210 C.3   353  GLU353      0.1160
    105  CD        69.4040   34.7670   39.0490 C.2   353  GLU353      0.3649
    106  OE1       69.4080   35.2370   40.2010 O.co2 353  GLU353     -0.2457
    107  OE2       68.9840   33.6180   38.7870 O.co2 353  GLU353     -0.2457
    108  N         74.2920   33.6780   34.7980 N.3   399  TRP399     -0.1241
    109  CA        73.9630   33.0680   36.0570 C.3   399  TRP399      0.1605
    110  C         74.8840   31.9640   36.4900 C.2   399  TRP399      0.2264
    111  O         75.1670   31.0030   35.7620 O.2   399  TRP399     -0.2867
    112  CB        72.5280   32.5710   36.1250 C.3   399  TRP399      0.0550
    113  CG        72.3590   31.6540   37.2880 C.ar  399  TRP399      0.0003
    114  CD1       72.3070   30.2840   37.2420 C.ar  399  TRP399      0.0946
    115  CD2       72.3950   32.0000   38.6870 C.ar  399  TRP399      0.0152
    116  NE1       72.3220   29.7590   38.5170 N.ar  399  TRP399     -0.2442
    117  CE2       72.3750   30.7820   39.4150 C.ar  399  TRP399      0.0810
    118  CE3       72.4530   33.2070   39.3860 C.ar  399  TRP399      0.0012
    119  CZ2       72.4060   30.7480   40.8130 C.ar  399  TRP399      0.0191
    120  CZ3       72.4870   33.1770   40.7840 C.ar  399  TRP399      0.0001
    121  CH2       72.4630   31.9480   41.4850 C.ar  399  TRP399      0.0015
    122  N         71.8010   24.1220   43.7630 N.3   406  GLU406     -0.1231
    123  CA        70.7050   24.4560   42.8650 C.3   406  GLU406      0.1699
    124  C         69.3380   24.1570   43.4610 C.2   406  GLU406      0.2592
    125  O         68.5530   23.3700   42.9160 O.2   406  GLU406     -0.2718
    126  CB        70.8560   23.7100   41.5330 C.3   406  GLU406      0.0402
    127  CG        71.8540   24.3740   40.6170 C.3   406  GLU406      0.1161
    128  CD        71.5900   25.8790   40.4770 C.2   406  GLU406      0.3649
    129  OE1       72.5890   26.6580   40.3840 O.co2 406  GLU406     -0.2457
    130  OE2       70.3830   26.2570   40.4690 O.co2 406  GLU406     -0.2457
    131  N         69.0820   24.7650   44.6110 N.am  407  TRP407     -0.1976
    132  CA        67.8060   24.6180   45.2870 C.3   407  TRP407      0.1640
    133  C         67.3230   23.1640   45.3350 C.2   407  TRP407      0.2290
    134  O         68.0790   22.2650   45.7110 O.2   407  TRP407     -0.2864
    135  CB        66.7930   25.5260   44.5870 C.3   407  TRP407      0.0576
    136  CG        67.2810   26.9380   44.5220 C.ar  407  TRP407      0.0006
    137  CD1       67.5790   27.6740   43.3950 C.ar  407  TRP407      0.0946
    138  CD2       67.5660   27.7900   45.6370 C.ar  407  TRP407      0.0152
    139  NE1       68.0270   28.9310   43.7520 N.ar  407  TRP407     -0.2442
    140  CE2       68.0290   29.0280   45.1200 C.ar  407  TRP407      0.0810
    141  CE3       67.4750   27.6270   47.0250 C.ar  407  TRP407      0.0012
    142  CZ2       68.3980   30.0920   45.9380 C.ar  407  TRP407      0.0191
    143  CZ3       67.8430   28.6830   47.8530 C.ar  407  TRP407      0.0001
    144  CH2       68.3010   29.9080   47.3060 C.ar  407  TRP407      0.0015
    145  N         67.1310   20.9060   43.2990 N.3   409  TRP409     -0.1241
    146  CA        67.9610   19.9550   42.5750 C.3   409  TRP409      0.1605
    147  C         69.2250   19.6400   43.3510 C.2   409  TRP409      0.2264
    148  O         69.9490   18.6990   43.0190 O.2   409  TRP409     -0.2867
    149  CB        68.3670   20.5180   41.2240 C.3   409  TRP409      0.0550
    150  CG        67.2300   20.8830   40.3540 C.ar  409  TRP409      0.0003
    151  CD1       66.5060   22.0320   40.3930 C.ar  409  TRP409      0.0946
    152  CD2       66.7200   20.1250   39.2600 C.ar  409  TRP409      0.0152
    153  NE1       65.5840   22.0450   39.3770 N.ar  409  TRP409     -0.2442
    154  CE2       65.6950   20.8820   38.6600 C.ar  409  TRP409      0.0810
    155  CE3       67.0390   18.8770   38.7170 C.ar  409  TRP409      0.0012
    156  CZ2       64.9780   20.4380   37.5500 C.ar  409  TRP409      0.0191
    157  CZ3       66.3320   18.4300   37.6170 C.ar  409  TRP409      0.0001
    158  CH2       65.3150   19.2100   37.0400 C.ar  409  TRP409      0.0015
    159  N         75.4030   24.9570   37.2760 N.3   415  PHE415     -0.1241
    160  CA        75.1310   26.1500   36.4780 C.3   415  PHE415      0.1605
    161  C         76.3450   27.0660   36.3220 C.2   415  PHE415      0.2264
    162  O         76.2950   28.0580   35.5820 O.2   415  PHE415     -0.2867
    163  CB        74.0300   26.9870   37.1340 C.3   415  PHE415      0.0534
    164  CG        72.6610   26.7810   36.5520 C.ar  415  PHE415     -0.0203
    165  CD1       71.7140   25.9990   37.2110 C.ar  415  PHE415     -0.0042
    166  CD2       72.2960   27.4290   35.3750 C.ar  415  PHE415     -0.0042
    167  CE1       70.4150   25.8740   36.7100 C.ar  415  PHE415     -0.0003
    168  CE2       71.0020   27.3130   34.8640 C.ar  415  PHE415     -0.0003
    169  CZ        70.0600   26.5360   35.5330 C.ar  415  PHE415     -0.0000
@<TRIPOS>BOND
     1    88    87    2
     2    87    86    1
     3    68    67    2
     4    67    66    1
     5    86    85    1
     6    86    89    1
     7    89    90    1
     8    66    65    1
     9    66    69    1
    10    69    70    1
    11    90    91   ar
    12    90    92   ar
    13    77    78    1
    14    91    93   ar
    15    79    80    2
    16    79    78    1
    17    70    71   ar
    18    70    72   ar
    19    92    95   ar
    20    92    94   ar
    21    71    73   ar
    22    95    97   ar
    23   102   101    2
    24    78    81    1
    25   101   100    1
    26    72    74   ar
    27    93    94   ar
    28    73    75   ar
    29    81    82    1
    30    94    96   ar
    31    97    98   ar
    32   108   109    1
    33   168   166   ar
    34   168   169   ar
    35    74    75   ar
    36    75    76    1
    37   166   164   ar
    38   100    99    1
    39   100   103    1
    40    59    60    2
    41    59    58    1
    42   169   167   ar
    43    82    83    1
    44   162   161    2
    45   111   110    2
    46    98    96   ar
    47    83    84    1
    48   109   112    1
    49   109   110    1
    50   112   113    1
    51   161   160    1
    52    58    61    1
    53    58    57    1
    54   160   163    1
    55   160   159    1
    56   103   104    1
    57   164   163    1
    58   164   165   ar
    59   167   165   ar
    60    61    62    1
    61   158   156   ar
    62   158   157   ar
    63   114   113   ar
    64   114   116   ar
    65   113   115   ar
    66    64    62   am
    67   156   154   ar
    68   157   155   ar
    69    62    63    2
    70   104   105    1
    71   116   117   ar
    72    50    48   ar
    73   154   152   ar
    74   154   153   ar
    75   115   118   ar
    76   115   117   ar
    77   155   152   ar
    78   107   105   ar
    79   105   106   ar
    80   152   150   ar
    81   153   151   ar
    82   118   120   ar
    83   117   119   ar
    84    48    49   ar
    85    48    47    1
    86   150   151   ar
    87   150   149    1
    88   129   128   ar
    89    47    46    1
    90   130   128   ar
    91   128   127    1
    92   127   126    1
    93   120   121   ar
    94   119   121   ar
    95    56    55    1
    96   149   146    1
    97    46    43    1
    98    41    39   am
    99   126   123    1
   100    43    42    1
   101    43    44    1
   102    42    36   am
   103    39    40    2
   104    39    38    1
   105   146   145    1
   106   146   147    1
   107    51    52    1
   108    44    45    2
   109    55    52    1
   110   123   124    1
   111   123   122    1
   112   125   124    2
   113    33    31   ar
   114    33    32   ar
   115    36    35    1
   116    36    37    2
   117   148   147    2
   118    35    38    1
   119    35    34    1
   120    31    29   ar
   121    52    53    1
   122   137   139   ar
   123   137   136   ar
   124     9     7   am
   125   124   131   am
   126    19    18   ar
   127    19    17   ar
   128   139   140   ar
   129     8     7    2
   130    18    16   ar
   131    32    30   ar
   132     7     6    1
   133    29    28   ar
   134    29    27   ar
   135    17    15   ar
   136   136   135    1
   137   136   138   ar
   138   135   132    1
   139   131   132    1
   140    53    54    2
   141    28    26   ar
   142   140   138   ar
   143   140   142   ar
   144    16    15   ar
   145   132   133    1
   146   133   134    2
   147    30    27   ar
   148    27    25   ar
   149    15    14    1
   150   138   141   ar
   151     6     5    1
   152     5     2    1
   153   142   144   ar
   154    26    25   ar
   155    25    24    1
   156     4     3    2
   157   141   143   ar
   158    14    11    1
   159     3     2    1
   160     2     1    1
   161   144   143   ar
   162    11    12    1
   163    11    10    1
   164    13    12    2
   165    12    20   am
   166    24    21    1
   167    20    21    1
   168    21    22    1
   169    22    23    2
