@<TRIPOS>MOLECULE
tmp/2oa1B00.pdb
 110 103 0 0 0
SMALL
GASTEIGER

@<TRIPOS>ATOM
      1  N        -11.9220   37.4360  -47.4740 N.3    10  VAL10      -0.1231
      2  CA       -11.2800   38.4040  -48.3560 C.3    10  VAL10       0.1692
      3  C         -9.8780   38.6550  -47.8090 C.2    10  VAL10       0.2593
      4  O         -9.7190   39.0960  -46.6650 O.2    10  VAL10      -0.2718
      5  CB       -12.0790   39.7120  -48.4690 C.3    10  VAL10       0.0266
      6  CG1      -11.2750   40.7760  -49.2070 C.3    10  VAL10       0.0020
      7  CG2      -13.4520   39.4450  -49.1920 C.3    10  VAL10       0.0020
      8  N         -8.8680   38.3300  -48.6220 N.am   11  GLY11      -0.1942
      9  CA        -7.4800   38.3940  -48.1870 C.3    11  GLY11       0.2014
     10  C         -6.8580   37.0230  -47.9570 C.2    11  GLY11       0.2639
     11  O         -7.4380   36.1530  -47.2980 O.2    11  GLY11      -0.2714
     12  N         -5.6810   36.8180  -48.5340 N.am   12  GLY12      -0.1939
     13  CA        -4.8740   35.7030  -48.1400 C.3    12  GLY12       0.2014
     14  C         -3.8710   36.0840  -47.0380 C.2    12  GLY12       0.2639
     15  O         -4.2380   36.5520  -45.8920 O.2    12  GLY12      -0.2714
     16  N         -2.6040   35.8680  -47.3800 N.am   13  GLY13      -0.1954
     17  CA        -1.5360   35.9270  -46.4060 C.3    13  GLY13       0.1869
     18  C         -1.7970   34.9520  -45.2750 C.2    13  GLY13       0.2309
     19  O         -2.6360   34.0450  -45.3870 O.2    13  GLY13      -0.2863
     20  N        -10.9000   34.9470  -51.4540 N.3    36  LEU36      -0.1231
     21  CA       -10.6400   35.8680  -52.5330 C.3    36  LEU36       0.1693
     22  C         -9.3690   36.6520  -52.1980 C.2    36  LEU36       0.2592
     23  O         -9.2550   37.2660  -51.1350 O.2    36  LEU36      -0.2718
     24  CB       -11.8370   36.7910  -52.6770 C.3    36  LEU36       0.0284
     25  CG       -12.0750   37.7820  -53.7850 C.3    36  LEU36       0.0019
     26  CD1      -11.9230   37.1240  -55.1440 C.3    36  LEU36       0.0001
     27  CD2      -13.5220   38.2910  -53.6090 C.3    36  LEU36       0.0001
     28  N         -8.4010   36.5990  -53.1010 N.am   37  GLN37      -0.1966
     29  CA        -7.1750   37.3590  -52.9090 C.3    37  GLN37       0.1733
     30  C         -6.5590   37.8210  -54.2140 C.2    37  GLN37       0.2616
     31  O         -6.4480   37.0520  -55.1790 O.2    37  GLN37      -0.2715
     32  CB        -6.1350   36.5530  -52.1470 C.3    37  GLN37       0.0408
     33  CG        -5.4380   35.4720  -52.9570 C.3    37  GLN37       0.0908
     34  CD        -4.2880   34.8750  -52.1780 C.2    37  GLN37       0.2608
     35  OE1       -3.3490   35.5750  -51.8170 O.2    37  GLN37      -0.2717
     36  NE2       -4.3680   33.5850  -51.8900 N.am   37  GLN37      -0.0878
     37  N         -6.1520   39.0840  -54.2200 N.am   38  ALA38      -0.1977
     38  CA        -5.3840   39.6380  -55.3220 C.3    38  ALA38       0.1597
     39  C         -3.8980   39.3320  -55.0800 C.2    38  ALA38       0.2287
     40  O         -3.4440   39.4060  -53.9440 O.2    38  ALA38      -0.2864
     41  CB        -5.6230   41.1260  -55.4020 C.3    38  ALA38       0.0319
     42  N         -0.1770   40.4440  -54.9020 N.3    40  ASP40      -0.1239
     43  CA         0.4430   41.7560  -54.5800 C.3    40  ASP40       0.1674
     44  C          1.9680   41.6740  -54.6230 C.2    40  ASP40       0.2266
     45  O          2.5220   40.5710  -54.5980 O.2    40  ASP40      -0.2867
     46  CB        -0.0050   42.2540  -53.1850 C.3    40  ASP40       0.1410
     47  CG        -1.5270   42.5020  -53.0870 C.2    40  ASP40       0.3668
     48  OD1       -2.1390   43.0510  -54.0520 O.co2  40  ASP40      -0.2456
     49  OD2       -2.1070   42.1510  -52.0240 O.co2  40  ASP40      -0.2456
     50  N         -8.5540   37.3500  -57.4870 N.3   194  ASP194     -0.1225
     51  CA        -9.2330   38.5120  -58.0320 C.3   194  ASP194      0.1805
     52  C         -9.2110   39.6420  -57.0130 C.2   194  ASP194      0.2598
     53  O         -8.9540   39.4290  -55.8360 O.2   194  ASP194     -0.2718
     54  CB       -10.6800   38.1600  -58.3640 C.3   194  ASP194      0.1424
     55  CG       -11.1960   38.8760  -59.5860 C.2   194  ASP194      0.3668
     56  OD1      -10.6810   39.9610  -59.9790 O.co2 194  ASP194     -0.2456
     57  OD2      -12.1700   38.3380  -60.1340 O.co2 194  ASP194     -0.2456
     58  N         -9.5170   40.8400  -57.4860 N.am  195  ARG195     -0.1966
     59  CA        -9.3690   42.0480  -56.7000 C.3   195  ARG195      0.1729
     60  C        -10.7580   42.6310  -56.3970 C.2   195  ARG195      0.2616
     61  O        -11.5110   42.9540  -57.3150 O.2   195  ARG195     -0.2715
     62  CB        -8.5340   43.0250  -57.5310 C.3   195  ARG195      0.0348
     63  CG        -8.0300   44.2480  -56.8280 C.3   195  ARG195      0.0492
     64  CD        -7.0560   45.0020  -57.7460 C.3   195  ARG195      0.2205
     65  NE        -5.8250   44.2370  -58.0570 N.pl3 195  ARG195     -0.0865
     66  CZ        -4.8400   43.9800  -57.1820 C.cat 195  ARG195      0.5346
     67  NH1       -3.7720   43.2740  -57.5610 N.pl3 195  ARG195      0.1354
     68  NH2       -4.9320   44.4020  -55.9160 N.pl3 195  ARG195      0.1354
     69  N        -11.1100   42.7630  -55.1270 N.am  196  VAL196     -0.1977
     70  CA       -12.4020   43.4110  -54.7850 C.3   196  VAL196      0.1596
     71  C        -12.4550   44.8270  -55.3590 C.2   196  VAL196      0.2287
     72  O        -11.5510   45.6280  -55.1340 O.2   196  VAL196     -0.2864
     73  CB       -12.6730   43.4480  -53.2630 C.3   196  VAL196      0.0276
     74  CG1      -14.0380   44.0470  -52.9530 C.3   196  VAL196      0.0022
     75  CG2      -12.5600   42.0420  -52.6640 C.3   196  VAL196      0.0022
     76  N         -9.8850   39.5440  -43.9520 N.3   226  CYS226     -0.1221
     77  CA        -8.4660   39.3330  -43.7280 C.3   226  CYS226      0.1808
     78  C         -7.6670   40.2100  -44.6800 C.2   226  CYS226      0.2602
     79  O         -6.6220   39.8100  -45.1660 O.2   226  CYS226     -0.2717
     80  CB        -8.0690   37.8480  -43.9300 C.3   226  CYS226      0.0970
     81  SG        -8.8710   36.7390  -42.7310 S.3   226  CYS226     -0.0800
     82  N         -8.1850   41.4020  -44.9580 N.am  227  SER227     -0.1938
     83  CA        -7.5430   42.2840  -45.9190 C.3   227  SER227      0.2055
     84  C         -6.3530   43.0560  -45.3370 C.2   227  SER227      0.2643
     85  O         -5.7350   43.8260  -46.0520 O.2   227  SER227     -0.2714
     86  CB        -8.5760   43.2420  -46.5280 C.3   227  SER227      0.2130
     87  OG        -9.1300   44.0960  -45.5160 O.3   227  SER227     -0.2179
     88  N         -6.0200   42.8660  -44.0580 N.am  228  GLY228     -0.1954
     89  CA        -4.8200   43.5520  -43.5110 C.3   228  GLY228      0.1869
     90  C         -5.2050   44.9540  -43.0690 C.2   228  GLY228      0.2309
     91  O         -6.3950   45.2180  -42.8470 O.2   228  GLY228     -0.2863
     92  N         -5.7420   47.7090  -44.4400 N.3   230  ARG230     -0.1245
     93  CA        -6.7990   48.3560  -45.2100 C.3   230  ARG230      0.1563
     94  C         -8.2210   48.1870  -44.6580 C.2   230  ARG230      0.2260
     95  O         -9.0460   49.0570  -44.8680 O.2   230  ARG230     -0.2867
     96  CB        -6.7820   47.8680  -46.6540 C.3   230  ARG230      0.0307
     97  CG        -5.6750   48.5340  -47.4740 C.3   230  ARG230      0.0489
     98  CD        -5.8180   48.1830  -48.9570 C.3   230  ARG230      0.2205
     99  NE        -4.6050   47.5050  -49.3950 N.pl3 230  ARG230     -0.0865
    100  CZ        -4.3780   46.2040  -49.1990 C.cat 230  ARG230      0.5346
    101  NH1       -5.3090   45.4530  -48.5960 N.pl3 230  ARG230      0.1354
    102  NH2       -3.2240   45.6500  -49.5910 N.pl3 230  ARG230      0.1354
    103  N        -10.6250   46.4640  -45.7580 N.3   232  LEU232     -0.1245
    104  CA       -11.5160   46.5510  -46.9160 C.3   232  LEU232      0.1561
    105  C        -13.0040   46.4160  -46.5580 C.2   232  LEU232      0.2260
    106  O        -13.8370   47.1860  -47.0470 O.2   232  LEU232     -0.2867
    107  CB       -11.2010   45.4000  -47.8350 C.3   232  LEU232      0.0270
    108  CG       -10.9670   45.6700  -49.2870 C.3   232  LEU232      0.0019
    109  CD1       -9.4650   45.6230  -49.5210 C.3   232  LEU232      0.0001
    110  CD2      -11.6610   44.5120  -49.9890 C.3   232  LEU232      0.0001
@<TRIPOS>BOND
     1    57    55   ar
     2    56    55   ar
     3    55    54    1
     4    54    51    1
     5    65    64    1
     6    65    66    2
     7    51    50    1
     8    51    52    1
     9    64    63    1
    10    67    66    1
    11    62    63    1
    12    62    59    1
    13    58    52   am
    14    58    59    1
    15    61    60    2
    16    66    68    1
    17    52    53    2
    18    59    60    1
    19    60    69   am
    20    41    38    1
    21    71    72    2
    22    71    70    1
    23    38    39    1
    24    38    37    1
    25    31    30    2
    26    26    25    1
    27    69    70    1
    28    39    40    2
    29    42    43    1
    30    70    73    1
    31    44    45    2
    32    44    43    1
    33    43    46    1
    34    37    30   am
    35    30    29    1
    36    48    47   ar
    37    25    27    1
    38    25    24    1
    39    73    74    1
    40    73    75    1
    41    46    47    1
    42    28    29    1
    43    28    22   am
    44    47    49   ar
    45    33    34    1
    46    33    32    1
    47    29    32    1
    48    24    21    1
    49    21    22    1
    50    21    20    1
    51    22    23    2
    52    34    36   am
    53    34    35    2
    54   110   108    1
    55   102   100    1
    56   109   108    1
    57    99   100    2
    58    99    98    1
    59   108   107    1
    60     6     5    1
    61   100   101    1
    62     7     5    1
    63    98    97    1
    64     8     9    1
    65     8     3   am
    66    12    13    1
    67    12    10   am
    68     5     2    1
    69     2     3    1
    70     2     1    1
    71     9    10    1
    72    13    14    1
    73    10    11    2
    74   107   104    1
    75     3     4    2
    76    97    96    1
    77    16    14   am
    78    16    17    1
    79   106   105    2
    80    14    15    2
    81   104   105    1
    82   104   103    1
    83    96    93    1
    84    86    83    1
    85    86    87    1
    86    17    18    1
    87    85    84    2
    88    83    84    1
    89    83    82    1
    90    19    18    2
    91    84    88   am
    92    93    94    1
    93    93    92    1
    94    79    78    2
    95    82    78   am
    96    95    94    2
    97    78    77    1
    98    88    89    1
    99    76    77    1
   100    80    77    1
   101    80    81    1
   102    89    90    1
   103    90    91    2
