@<TRIPOS>MOLECULE
tmp/2oa5A00.pdb
 101 95 0 0 0
SMALL
GASTEIGER

@<TRIPOS>ATOM
      1  N        -16.6900    4.6900   12.8820 N.3     8  VAL8       -0.1245
      2  CA       -17.1180    3.3580   12.4880 C.3     8  VAL8        0.1561
      3  C        -18.2490    2.8480   13.3560 C.2     8  VAL8        0.2260
      4  O        -19.1920    2.2590   12.8460 O.2     8  VAL8       -0.2867
      5  CB       -15.9460    2.3320   12.4990 C.3     8  VAL8        0.0252
      6  CG1      -16.4900    0.9240   12.3120 C.3     8  VAL8        0.0019
      7  CG2      -14.9730    2.6470   11.3750 C.3     8  VAL8        0.0019
      8  N        -21.4580    4.4250   12.1270 N.3    11  VAL11      -0.1231
      9  CA       -21.8550    3.9030   10.8280 C.3    11  VAL11       0.1692
     10  C        -22.4700    2.5250   11.0210 C.2    11  VAL11       0.2591
     11  O        -23.4820    2.2020   10.4010 O.2    11  VAL11      -0.2718
     12  CB       -20.6630    3.7680    9.8480 C.3    11  VAL11       0.0266
     13  CG1      -21.1260    3.0630    8.5690 C.3    11  VAL11       0.0020
     14  CG2      -20.1160    5.1350    9.4910 C.3    11  VAL11       0.0020
     15  N        -21.8630    1.7090   11.8830 N.am   12  GLU12      -0.1979
     16  CA       -22.3970    0.3740   12.1410 C.3    12  GLU12       0.1602
     17  C        -23.7780    0.4600   12.7870 C.2    12  GLU12       0.2287
     18  O        -24.6760   -0.3120   12.4480 O.2    12  GLU12      -0.2864
     19  CB       -21.4510   -0.4280   13.0420 C.3    12  GLU12       0.0415
     20  CG       -22.0300   -1.7670   13.5230 C.3    12  GLU12       0.1163
     21  CD       -21.1950   -2.4190   14.6230 C.2    12  GLU12       0.3649
     22  OE1      -21.1070   -1.8380   15.7280 O.co2  12  GLU12      -0.2457
     23  OE2      -20.6260   -3.5080   14.3890 O.co2  12  GLU12      -0.2457
     24  N        -26.3050    1.5110   10.1380 N.3    15  LYS15      -0.1231
     25  CA       -26.5480    0.4150    9.2090 C.3    15  LYS15       0.1693
     26  C        -27.4690   -0.6260    9.8280 C.2    15  LYS15       0.2591
     27  O        -28.3220   -1.1820    9.1410 O.2    15  LYS15      -0.2718
     28  CB       -25.2360   -0.2480    8.7880 C.3    15  LYS15       0.0285
     29  CG       -24.3670    0.6150    7.8910 C.3    15  LYS15       0.0035
     30  CD       -23.2390   -0.2030    7.2760 C.3    15  LYS15       0.0206
     31  CE       -22.3120    0.6870    6.4710 C.3    15  LYS15       0.1093
     32  NZ       -21.2540   -0.0700    5.7310 N.3    15  LYS15      -0.1314
     33  N        -27.3050   -0.8690   11.1280 N.am   16  LEU16      -0.1980
     34  CA       -28.1230   -1.8520   11.8320 C.3    16  LEU16       0.1596
     35  C        -29.5110   -1.3090   12.1080 C.2    16  LEU16       0.2287
     36  O        -30.4860   -2.0640   12.1470 O.2    16  LEU16      -0.2864
     37  CB       -27.4480   -2.2740   13.1450 C.3    16  LEU16       0.0297
     38  CG       -26.1030   -2.9680   12.9050 C.3    16  LEU16       0.0022
     39  CD1      -25.3890   -3.3150   14.2110 C.3    16  LEU16       0.0001
     40  CD2      -26.3820   -4.2170   12.0890 C.3    16  LEU16       0.0001
     41  N        -20.5760   -3.4810   -3.8090 N.3    30  THR30      -0.1203
     42  CA       -19.6730   -3.0000   -4.8450 C.3    30  THR30       0.1994
     43  C        -18.3080   -3.3860   -4.3000 C.2    30  THR30       0.2618
     44  O        -18.1620   -3.5910   -3.0940 O.2    30  THR30      -0.2717
     45  CB       -19.7590   -1.4500   -4.9790 C.3    30  THR30       0.1784
     46  OG1      -20.8420   -1.0970   -5.8430 O.3    30  THR30      -0.2211
     47  CG2      -18.4880   -0.8770   -5.5440 C.3    30  THR30       0.0376
     48  N        -17.3130   -3.5030   -5.1740 N.am   31  ALA31      -0.1965
     49  CA       -15.9700   -3.8530   -4.7260 C.3    31  ALA31       0.1728
     50  C        -15.3530   -2.6490   -4.0250 C.2    31  ALA31       0.2616
     51  O        -14.5310   -2.7920   -3.1190 O.2    31  ALA31      -0.2715
     52  CB       -15.1200   -4.2600   -5.9060 C.3    31  ALA31       0.0334
     53  N        -15.7470   -1.4580   -4.4590 N.am   32  ALA32      -0.1963
     54  CA       -15.2500   -0.2220   -3.8660 C.3    32  ALA32       0.1728
     55  C        -15.7680   -0.1200   -2.4370 C.2    32  ALA32       0.2616
     56  O        -15.0290    0.2080   -1.5130 O.2    32  ALA32      -0.2715
     57  CB       -15.7330    0.9620   -4.6720 C.3    32  ALA32       0.0334
     58  N        -17.0520   -0.4100   -2.2610 N.am   33  LYS33      -0.1977
     59  CA       -17.6700   -0.3350   -0.9470 C.3    33  LYS33       0.1596
     60  C        -17.1530   -1.4230   -0.0070 C.2    33  LYS33       0.2287
     61  O        -17.0210   -1.1870    1.1980 O.2    33  LYS33      -0.2864
     62  CB       -19.1900   -0.4140   -1.0760 C.3    33  LYS33       0.0298
     63  CG       -19.9250    0.2130    0.0870 C.3    33  LYS33       0.0038
     64  CD       -21.1640    0.9230   -0.4040 C.3    33  LYS33       0.0206
     65  CE       -21.9430    1.5320    0.7450 C.3    33  LYS33       0.1093
     66  NZ       -23.2860    1.9840    0.2830 N.3    33  LYS33      -0.1314
     67  N        -14.1560   -2.6740   -0.0940 N.3    35  GLU35      -0.1231
     68  CA       -12.8220   -2.2060    0.2660 C.3    35  GLU35       0.1699
     69  C        -12.9080   -1.0950    1.3030 C.2    35  GLU35       0.2593
     70  O        -12.1280   -1.0540    2.2550 O.2    35  GLU35      -0.2718
     71  CB       -12.0780   -1.7050   -0.9740 C.3    35  GLU35       0.0402
     72  CG       -10.6070   -1.3370   -0.7380 C.3    35  GLU35       0.1161
     73  CD        -9.7890   -2.5070   -0.2200 C.2    35  GLU35       0.3649
     74  OE1      -10.2920   -3.6560   -0.2510 O.co2  35  GLU35      -0.2457
     75  OE2       -8.6410   -2.2750    0.2120 O.co2  35  GLU35      -0.2457
     76  N        -13.8740   -0.2060    1.1190 N.am   36  SER36      -0.1938
     77  CA       -14.0870    0.9280    2.0100 C.3    36  SER36       0.2055
     78  C        -14.4500    0.4870    3.4300 C.2    36  SER36       0.2642
     79  O        -13.9520    1.0310    4.4140 O.2    36  SER36      -0.2714
     80  CB       -15.2000    1.8180    1.4430 C.3    36  SER36       0.2130
     81  OG       -15.3790    2.9820    2.2220 O.3    36  SER36      -0.2179
     82  N        -15.3370   -0.4940    3.5210 N.am   37  ILE37      -0.1977
     83  CA       -15.7810   -1.0340    4.7950 C.3    37  ILE37       0.1596
     84  C        -14.6290   -1.7920    5.4710 C.2    37  ILE37       0.2287
     85  O        -14.3840   -1.6530    6.6770 O.2    37  ILE37      -0.2864
     86  CB       -17.0050   -1.9620    4.5680 C.3    37  ILE37       0.0276
     87  CG1      -18.2060   -1.1070    4.1070 C.3    37  ILE37       0.0022
     88  CG2      -17.3400   -2.7410    5.8400 C.3    37  ILE37       0.0022
     89  CD1      -19.4180   -1.8980    3.6120 C.3    37  ILE37       0.0001
     90  N        -11.8190    0.8000    6.7080 N.3    40  SER40      -0.1202
     91  CA       -12.2730    1.6130    7.8300 C.3    40  SER40       0.2020
     92  C        -12.4960    0.7570    9.0760 C.2    40  SER40       0.2619
     93  O        -12.1190    1.1530   10.1860 O.2    40  SER40      -0.2717
     94  CB       -13.5550    2.3580    7.4690 C.3    40  SER40       0.2103
     95  OG       -14.6150    1.4470    7.2780 O.3    40  SER40      -0.2182
     96  N        -13.1170   -0.4100    8.8950 N.am   41  SER41      -0.1951
     97  CA       -13.3670   -1.3100   10.0190 C.3    41  SER41       0.1924
     98  C        -12.0380   -1.7410   10.6280 C.2    41  SER41       0.2314
     99  O        -11.8740   -1.7740   11.8490 O.2    41  SER41      -0.2863
    100  CB       -14.1550   -2.5390    9.5620 C.3    41  SER41       0.2116
    101  OG       -15.4590   -2.1780    9.1400 O.3    41  SER41      -0.2180
@<TRIPOS>BOND
     1    52    49    1
     2    46    45    1
     3    47    45    1
     4    48    49    1
     5    48    43   am
     6    45    42    1
     7    42    43    1
     8    42    41    1
     9    49    50    1
    10    57    54    1
    11    53    50   am
    12    53    54    1
    13    43    44    2
    14    50    51    2
    15    54    55    1
    16    55    58   am
    17    55    56    2
    18    58    59    1
    19    62    59    1
    20    62    63    1
    21    71    72    1
    22    71    68    1
    23    59    60    1
    24    72    73    1
    25    64    63    1
    26    64    65    1
    27    74    73   ar
    28    73    75   ar
    29    67    68    1
    30    60    61    2
    31    68    69    1
    32    66    65    1
    33    76    69   am
    34    76    77    1
    35    69    70    2
    36    80    77    1
    37    80    81    1
    38    77    78    1
    39    78    82   am
    40    78    79    2
    41    82    83    1
    42    89    87    1
    43    87    86    1
    44    86    83    1
    45    86    88    1
    46    83    84    1
    47    84    85    2
    48    32    31    1
    49    31    30    1
    50    90    91    1
    51    30    29    1
    52    95    94    1
    53    94    91    1
    54    91    92    1
    55    29    28    1
    56    13    12    1
    57    28    25    1
    58    96    92   am
    59    96    97    1
    60    92    93    2
    61   101   100    1
    62    27    26    2
    63    25    26    1
    64    25    24    1
    65    14    12    1
    66   100    97    1
    67    26    33   am
    68    12     9    1
    69    97    98    1
    70    11    10    2
    71    98    99    2
    72     9    10    1
    73     9     8    1
    74    10    15   am
    75    33    34    1
    76     7     5    1
    77    34    35    1
    78    34    37    1
    79    15    16    1
    80    40    38    1
    81    35    36    2
    82    16    17    1
    83    16    19    1
    84     6     5    1
    85    18    17    2
    86     2     5    1
    87     2     1    1
    88     2     3    1
    89     4     3    2
    90    38    37    1
    91    38    39    1
    92    19    20    1
    93    20    21    1
    94    23    21   ar
    95    21    22   ar
