@<TRIPOS>MOLECULE
tmp/2oa5B00.pdb
 87 82 0 0 0
SMALL
GASTEIGER

@<TRIPOS>ATOM
      1  N         12.8290    8.7330   44.0120 N.3    19  LYS19      -0.1245
      2  CA        13.8380    9.7150   43.6280 C.3    19  LYS19       0.1561
      3  C         15.0400    9.5380   44.5590 C.2    19  LYS19       0.2260
      4  O         16.1850    9.7340   44.1600 O.2    19  LYS19      -0.2867
      5  CB        13.3090   11.1460   43.7500 C.3    19  LYS19       0.0271
      6  CG        12.8230   11.7500   42.4310 C.3    19  LYS19       0.0035
      7  CD        12.9020   13.2790   42.4480 C.3    19  LYS19       0.0206
      8  CE        14.0420   13.8010   41.5660 C.3    19  LYS19       0.1093
      9  NZ        13.7390   13.7080   40.1020 N.3    19  LYS19      -0.1314
     10  N         16.9240    6.3180   43.4010 N.3    22  LYS22      -0.1231
     11  CA        17.7120    6.4730   42.1840 C.3    22  LYS22       0.1693
     12  C         19.0090    7.1570   42.5790 C.2    22  LYS22       0.2592
     13  O         20.0750    6.8470   42.0580 O.2    22  LYS22      -0.2718
     14  CB        16.9660    7.3230   41.1550 C.3    22  LYS22       0.0285
     15  CG        15.9960    6.5160   40.3070 C.3    22  LYS22       0.0035
     16  CD        15.0620    7.4130   39.5240 C.3    22  LYS22       0.0206
     17  CE        14.0590    6.5840   38.7480 C.3    22  LYS22       0.1093
     18  NZ        13.0300    7.4290   38.0930 N.3    22  LYS22      -0.1314
     19  N         18.8900    8.0830   43.5230 N.am   23  GLN23      -0.1966
     20  CA        20.0150    8.8480   44.0470 C.3    23  GLN23       0.1733
     21  C         21.1020    7.9140   44.5690 C.2    23  GLN23       0.2616
     22  O         22.2800    8.0550   44.2330 O.2    23  GLN23      -0.2715
     23  CB        19.5130    9.7430   45.1740 C.3    23  GLN23       0.0408
     24  CG        20.3940   10.9030   45.5120 C.3    23  GLN23       0.0908
     25  CD        19.5630   12.1480   45.7850 C.2    23  GLN23       0.2608
     26  OE1       18.7340   12.5260   44.9610 O.2    23  GLN23      -0.2717
     27  NE2       19.7920   12.7610   46.9320 N.am   23  GLN23      -0.0878
     28  N         20.6880    6.9580   45.4000 N.am   24  LYS24      -0.1977
     29  CA        21.5970    5.9840   45.9810 C.3    24  LYS24       0.1596
     30  C         22.1400    5.0270   44.9310 C.2    24  LYS24       0.2287
     31  O         23.3120    4.6510   44.9740 O.2    24  LYS24      -0.2864
     32  CB        20.8820    5.1860   47.0680 C.3    24  LYS24       0.0298
     33  CG        20.4880    6.0090   48.2700 C.3    24  LYS24       0.0038
     34  CD        19.8030    5.1460   49.3030 C.3    24  LYS24       0.0206
     35  CE        19.3600    5.9770   50.4870 C.3    24  LYS24       0.1093
     36  NZ        18.3750    5.2190   51.2980 N.3    24  LYS24      -0.1314
     37  N         22.7310    5.6770   41.9370 N.3    26  LYS26      -0.1231
     38  CA        23.7330    6.4200   41.1810 C.3    26  LYS26       0.1693
     39  C         24.9750    6.6330   42.0290 C.2    26  LYS26       0.2592
     40  O         26.0930    6.4040   41.5640 O.2    26  LYS26      -0.2718
     41  CB        23.1890    7.7790   40.7630 C.3    26  LYS26       0.0285
     42  CG        22.2630    7.7430   39.5830 C.3    26  LYS26       0.0035
     43  CD        21.1170    8.6790   39.8360 C.3    26  LYS26       0.0206
     44  CE        20.7110    9.4050   38.5860 C.3    26  LYS26       0.1093
     45  NZ        19.5810   10.2970   38.9080 N.3    26  LYS26      -0.1314
     46  N         24.7720    7.0930   43.2610 N.am   27  SER27      -0.1952
     47  CA        25.8830    7.3260   44.1770 C.3    27  SER27       0.1924
     48  C         26.6430    6.0220   44.2840 C.2    27  SER27       0.2314
     49  O         27.8410    5.9740   44.0220 O.2    27  SER27      -0.2863
     50  CB        25.3690    7.7630   45.5470 C.3    27  SER27       0.2116
     51  OG        24.7310    9.0230   45.4520 O.3    27  SER27      -0.2180
     52  N         25.3330    1.4310   38.3830 N.3    31  VAL31      -0.1245
     53  CA        24.8100    1.7950   37.0920 C.3    31  VAL31       0.1561
     54  C         26.0080    1.7800   36.1770 C.2    31  VAL31       0.2260
     55  O         26.8920    2.6510   36.1900 O.2    31  VAL31      -0.2867
     56  CB        24.0490    3.1510   37.0470 C.3    31  VAL31       0.0252
     57  CG1       24.9760    4.3140   36.7100 C.3    31  VAL31       0.0019
     58  CG2       22.9300    3.0410   36.0040 C.3    31  VAL31       0.0019
     59  N         22.5280    3.5480   31.8030 N.3    36  SER36      -0.1202
     60  CA        22.0140    4.7800   32.3480 C.3    36  SER36       0.2020
     61  C         20.6360    4.5740   32.9570 C.2    36  SER36       0.2619
     62  O         19.8890    3.6730   32.5700 O.2    36  SER36      -0.2717
     63  CB        21.9260    5.8390   31.2520 C.3    36  SER36       0.2103
     64  OG        21.5000    7.0820   31.7830 O.3    36  SER36      -0.2182
     65  N         20.3200    5.4150   33.9320 N.am   37  ILE37      -0.1965
     66  CA        19.0250    5.3740   34.5750 C.3    37  ILE37       0.1727
     67  C         18.1330    6.2080   33.6640 C.2    37  ILE37       0.2616
     68  O         18.5170    7.2780   33.1860 O.2    37  ILE37      -0.2715
     69  CB        19.0820    5.9640   36.0170 C.3    37  ILE37       0.0290
     70  CG1       19.3130    4.8500   37.0430 C.3    37  ILE37       0.0022
     71  CG2       17.7490    6.6040   36.3810 C.3    37  ILE37       0.0023
     72  CD1       20.0420    3.6400   36.5220 C.3    37  ILE37       0.0001
     73  N         16.9460    5.6750   33.4110 N.am   38  LEU38      -0.1963
     74  CA        15.9590    6.2890   32.5430 C.3    38  LEU38       0.1728
     75  C         15.3680    7.5840   33.0910 C.2    38  LEU38       0.2616
     76  O         14.9670    7.6470   34.2570 O.2    38  LEU38      -0.2715
     77  CB        14.8230    5.2740   32.3180 C.3    38  LEU38       0.0311
     78  CG        14.4160    4.7280   30.9480 C.3    38  LEU38       0.0022
     79  CD1       15.6070    4.5830   30.0510 C.3    38  LEU38       0.0001
     80  CD2       13.7200    3.3870   31.1450 C.3    38  LEU38       0.0001
     81  N         15.3480    8.6230   32.2590 N.am   39  THR39      -0.1951
     82  CA        14.7030    9.8770   32.6430 C.3    39  THR39       0.1897
     83  C         13.2360    9.6040   32.2540 C.2    39  THR39       0.2313
     84  O         12.9700    8.7410   31.4210 O.2    39  THR39      -0.2863
     85  CB        15.2140   11.0990   31.8310 C.3    39  THR39       0.1794
     86  OG1       15.0420   10.8540   30.4330 O.3    39  THR39      -0.2208
     87  CG2       16.6940   11.3890   32.1370 C.3    39  THR39       0.0378
@<TRIPOS>BOND
     1    79    78    1
     2    86    85    1
     3    78    80    1
     4    78    77    1
     5    63    64    1
     6    63    60    1
     7    84    83    2
     8    59    60    1
     9    85    87    1
    10    85    82    1
    11    83    82    1
    12    81    82    1
    13    81    75   am
    14    77    74    1
    15    60    61    1
    16    74    75    1
    17    74    73    1
    18    62    61    2
    19    61    65   am
    20    75    76    2
    21    68    67    2
    22    73    67   am
    23    67    66    1
    24    65    66    1
    25    66    69    1
    26    58    56    1
    27    69    71    1
    28    69    70    1
    29    54    55    2
    30    54    53    1
    31    72    70    1
    32    57    56    1
    33    56    53    1
    34    53    52    1
    35    18    17    1
    36    44    45    1
    37    44    43    1
    38    17    16    1
    39    16    15    1
    40    42    43    1
    41    42    41    1
    42     9     8    1
    43    15    14    1
    44    41    38    1
    45    14    11    1
    46    38    37    1
    47    38    39    1
    48    40    39    2
    49     8     7    1
    50    39    46   am
    51    13    12    2
    52    11    12    1
    53    11    10    1
    54     6     7    1
    55     6     5    1
    56    12    19   am
    57    46    47    1
    58    19    20    1
    59     2     5    1
    60     2     1    1
    61     2     3    1
    62    49    48    2
    63    20    21    1
    64    20    23    1
    65     4     3    2
    66    47    48    1
    67    47    50    1
    68    22    21    2
    69    21    28   am
    70    30    31    2
    71    30    29    1
    72    26    25    2
    73    23    24    1
    74    28    29    1
    75    51    50    1
    76    24    25    1
    77    25    27   am
    78    29    32    1
    79    32    33    1
    80    33    34    1
    81    34    35    1
    82    35    36    1
