@<TRIPOS>MOLECULE
tmp/2oaeA00.pdb
 195 193 0 0 0
SMALL
GASTEIGER

@<TRIPOS>ATOM
      1  N         15.6720   27.7640  -78.6090 N.3    86  ARG86      -0.1231
      2  CA        15.9790   28.6120  -77.4700 C.3    86  ARG86       0.1694
      3  C         15.6100   28.0660  -76.1030 C.2    86  ARG86       0.2592
      4  O         16.3960   28.1630  -75.1720 O.2    86  ARG86      -0.2718
      5  CB        15.3300   29.9760  -77.6600 C.3    86  ARG86       0.0321
      6  CG        16.1920   31.1140  -77.2000 C.3    86  ARG86       0.0489
      7  CD        15.4650   32.4340  -77.3230 C.3    86  ARG86       0.2205
      8  NE        16.3950   33.5370  -77.5580 N.pl3  86  ARG86      -0.0865
      9  CZ        16.7140   34.0100  -78.7620 C.cat  86  ARG86       0.5346
     10  NH1       16.1720   33.4920  -79.8570 N.pl3  86  ARG86       0.1354
     11  NH2       17.6100   34.9790  -78.8740 N.pl3  86  ARG86       0.1354
     12  N         14.4270   27.4790  -75.9810 N.am   87  HIS87      -0.1976
     13  CA        13.9750   26.9750  -74.6890 C.3    87  HIS87       0.1656
     14  C         13.6500   25.4920  -74.6350 C.2    87  HIS87       0.2291
     15  O         13.6960   24.8780  -73.5720 O.2    87  HIS87      -0.2864
     16  CB        12.7560   27.7780  -74.2280 C.3    87  HIS87       0.0771
     17  CG        12.9420   29.2610  -74.3260 C.ar   87  HIS87       0.0820
     18  ND1       12.3410   30.0240  -75.3040 N.ar   87  HIS87      -0.2267
     19  CD2       13.7000   30.1130  -73.6000 C.ar   87  HIS87       0.1154
     20  CE1       12.7220   31.2810  -75.1790 C.ar   87  HIS87       0.1986
     21  NE2       13.5470   31.3600  -74.1530 N.ar   87  HIS87      -0.2212
     22  N          9.0400   30.5320  -79.3020 N.3   166  GLU166     -0.1231
     23  CA         9.9660   31.6390  -79.4600 C.3   166  GLU166      0.1699
     24  C          9.3830   33.0410  -79.3210 C.2   166  GLU166      0.2592
     25  O          9.9650   33.8850  -78.6450 O.2   166  GLU166     -0.2718
     26  CB        10.6400   31.5140  -80.8260 C.3   166  GLU166      0.0402
     27  CG        11.5990   32.6280  -81.2030 C.3   166  GLU166      0.1161
     28  CD        12.8440   32.6320  -80.3570 C.2   166  GLU166      0.3649
     29  OE1       13.2380   31.5490  -79.8740 O.co2 166  GLU166     -0.2457
     30  OE2       13.4410   33.7120  -80.1870 O.co2 166  GLU166     -0.2457
     31  N          8.2360   33.2800  -79.9580 N.am  167  GLU167     -0.1966
     32  CA         7.5940   34.5980  -79.9770 C.3   167  GLU167      0.1733
     33  C          6.4130   34.9140  -79.0650 C.2   167  GLU167      0.2616
     34  O          6.1880   36.0770  -78.7600 O.2   167  GLU167     -0.2715
     35  CB         7.1640   34.9190  -81.4050 C.3   167  GLU167      0.0429
     36  CG         8.2730   34.8430  -82.4340 C.3   167  GLU167      0.1163
     37  CD         9.4360   35.7480  -82.0920 C.2   167  GLU167      0.3649
     38  OE1        9.2070   36.7720  -81.4010 O.co2 167  GLU167     -0.2457
     39  OE2       10.5680   35.4390  -82.5230 O.co2 167  GLU167     -0.2457
     40  N          5.6410   33.9100  -78.6580 N.am  168  ILE168     -0.1963
     41  CA         4.4870   34.1520  -77.7940 C.3   168  ILE168      0.1727
     42  C          4.8270   33.8940  -76.3430 C.2   168  ILE168      0.2616
     43  O          4.9740   34.8250  -75.5550 O.2   168  ILE168     -0.2715
     44  CB         3.3180   33.2540  -78.1410 C.3   168  ILE168      0.0290
     45  CG1        2.9900   33.3640  -79.6260 C.3   168  ILE168      0.0022
     46  CG2        2.1220   33.6570  -77.3090 C.3   168  ILE168      0.0023
     47  CD1        2.4330   34.6890  -80.0330 C.3   168  ILE168      0.0001
     48  N          4.9130   32.6170  -75.9830 N.am  169  PHE169     -0.1960
     49  CA         5.2850   32.2400  -74.6240 C.3   169  PHE169      0.1771
     50  C          6.8060   32.2260  -74.6210 C.2   169  PHE169      0.2620
     51  O          7.4380   31.9970  -75.6540 O.2   169  PHE169     -0.2715
     52  CB         4.7540   30.8500  -74.2850 C.3   169  PHE169      0.0574
     53  CG         3.2730   30.7270  -74.4080 C.ar  169  PHE169     -0.0200
     54  CD1        2.7130   30.0170  -75.4470 C.ar  169  PHE169     -0.0042
     55  CD2        2.4350   31.3360  -73.4890 C.ar  169  PHE169     -0.0042
     56  CE1        1.3360   29.9180  -75.5670 C.ar  169  PHE169     -0.0003
     57  CE2        1.0630   31.2430  -73.6010 C.ar  169  PHE169     -0.0003
     58  CZ         0.5110   30.5360  -74.6370 C.ar  169  PHE169     -0.0000
     59  N          7.4180   32.4690  -73.4820 N.am  170  GLY170     -0.1954
     60  CA         8.8630   32.4680  -73.4870 C.3   170  GLY170      0.1869
     61  C          9.4740   31.0940  -73.3650 C.2   170  GLY170      0.2309
     62  O         10.6890   30.9920  -73.2960 O.2   170  GLY170     -0.2863
     63  N          5.9910   42.7490  -75.6450 N.3   318  PHE318     -0.1227
     64  CA         6.1320   41.6490  -76.5910 C.3   318  PHE318      0.1736
     65  C          4.7860   40.9280  -76.6840 C.2   318  PHE318      0.2595
     66  O          4.4870   40.2330  -77.6580 O.2   318  PHE318     -0.2718
     67  CB         7.2610   40.7200  -76.1530 C.3   318  PHE318      0.0547
     68  CG         8.6240   41.2810  -76.4320 C.ar  318  PHE318     -0.0202
     69  CD1        9.5610   41.4260  -75.4230 C.ar  318  PHE318     -0.0042
     70  CD2        8.9630   41.6940  -77.7100 C.ar  318  PHE318     -0.0042
     71  CE1       10.8190   41.9780  -75.6840 C.ar  318  PHE318     -0.0003
     72  CE2       10.2190   42.2440  -77.9700 C.ar  318  PHE318     -0.0003
     73  CZ        11.1420   42.3830  -76.9530 C.ar  318  PHE318     -0.0000
     74  N          3.9670   41.1450  -75.6600 N.am  319  ARG319     -0.1980
     75  CA         2.6290   40.5750  -75.5630 C.3   319  ARG319      0.1597
     76  C          1.9110   41.2240  -74.3870 C.2   319  ARG319      0.2287
     77  O          2.5460   41.7610  -73.4810 O.2   319  ARG319     -0.2864
     78  CB         2.6960   39.0660  -75.3490 C.3   319  ARG319      0.0334
     79  CG         3.6010   38.6430  -74.2310 C.3   319  ARG319      0.0492
     80  CD         3.2040   37.2720  -73.7890 C.3   319  ARG319      0.2205
     81  NE         4.2010   36.6310  -72.9430 N.pl3 319  ARG319     -0.0865
     82  CZ         3.9790   35.5200  -72.2430 C.cat 319  ARG319      0.5346
     83  NH1        2.7960   34.9150  -72.2670 N.pl3 319  ARG319      0.1354
     84  NH2        4.9570   35.0010  -71.5240 N.pl3 319  ARG319      0.1354
     85  N         21.7060   46.8270  -80.8950 N.3   511  TYR511     -0.1241
     86  CA        20.5950   45.9030  -80.9180 C.3   511  TYR511      0.1605
     87  C         19.4890   46.8180  -81.4240 C.2   511  TYR511      0.2264
     88  O         19.1710   46.8190  -82.6070 O.2   511  TYR511     -0.2867
     89  CB        20.2390   45.3520  -79.5480 C.3   511  TYR511      0.0534
     90  CG        19.2560   44.2190  -79.6950 C.ar  511  TYR511     -0.0201
     91  CD1       19.6660   42.9870  -80.2100 C.ar  511  TYR511     -0.0009
     92  CD2       17.9030   44.3970  -79.4140 C.ar  511  TYR511     -0.0009
     93  CE1       18.7510   41.9540  -80.4490 C.ar  511  TYR511      0.0417
     94  CE2       16.9740   43.3730  -79.6500 C.ar  511  TYR511      0.0417
     95  CZ        17.4040   42.1530  -80.1710 C.ar  511  TYR511      0.1957
     96  OH        16.4860   41.1560  -80.4400 O.3   511  TYR511     -0.2866
     97  N         22.2000   39.5940  -84.1610 N.3   594  SER594     -0.1202
     98  CA        20.7780   39.4280  -84.4020 C.3   594  SER594      0.2020
     99  C         20.1240   40.7200  -84.9460 C.2   594  SER594      0.2618
    100  O         20.4890   41.1920  -86.0180 O.2   594  SER594     -0.2717
    101  CB        20.1440   38.9720  -83.0830 C.3   594  SER594      0.2103
    102  OG        18.7550   38.7710  -83.1960 O.3   594  SER594     -0.2182
    103  N         19.1560   41.2850  -84.2260 N.am  595  TYR595     -0.1975
    104  CA        18.5130   42.5150  -84.6810 C.3   595  TYR595      0.1639
    105  C         19.5980   43.5730  -84.8180 C.2   595  TYR595      0.2290
    106  O         19.5600   44.4020  -85.7290 O.2   595  TYR595     -0.2864
    107  CB        17.4670   43.0090  -83.6770 C.3   595  TYR595      0.0560
    108  CG        16.5920   44.1290  -84.2080 C.ar  595  TYR595     -0.0198
    109  CD1       15.2960   43.8740  -84.6570 C.ar  595  TYR595     -0.0009
    110  CD2       17.0780   45.4310  -84.3200 C.ar  595  TYR595     -0.0009
    111  CE1       14.5090   44.8860  -85.2130 C.ar  595  TYR595      0.0417
    112  CE2       16.3010   46.4510  -84.8750 C.ar  595  TYR595      0.0417
    113  CZ        15.0190   46.1710  -85.3240 C.ar  595  TYR595      0.1957
    114  OH        14.2700   47.1590  -85.9220 O.3   595  TYR595     -0.2866
    115  N         19.4020   40.1820  -89.7880 N.3   620  VAL620     -0.1245
    116  CA        18.1940   39.9600  -90.5400 C.3   620  VAL620      0.1561
    117  C         18.4670   40.8780  -91.7190 C.2   620  VAL620      0.2260
    118  O         19.0000   41.9720  -91.5190 O.2   620  VAL620     -0.2867
    119  CB        16.9850   40.4440  -89.7590 C.3   620  VAL620      0.0252
    120  CG1       15.7940   40.6030  -90.6770 C.3   620  VAL620      0.0019
    121  CG2       16.6830   39.4660  -88.6610 C.3   620  VAL620      0.0019
    122  N         12.6830   41.8020  -93.7530 N.3   623  TRP623     -0.1241
    123  CA        11.6610   41.2020  -92.9230 C.3   623  TRP623      0.1605
    124  C         10.8060   40.0650  -93.4430 C.2   623  TRP623      0.2264
    125  O         10.1960   39.3630  -92.6490 O.2   623  TRP623     -0.2867
    126  CB        10.7980   42.3050  -92.3190 C.3   623  TRP623      0.0550
    127  CG        11.6370   43.1550  -91.4190 C.ar  623  TRP623      0.0003
    128  CD1       12.1220   44.4010  -91.6790 C.ar  623  TRP623      0.0946
    129  CD2       12.2250   42.7500  -90.1770 C.ar  623  TRP623      0.0152
    130  NE1       12.9820   44.7910  -90.6870 N.ar  623  TRP623     -0.2442
    131  CE2       13.0640   43.7960  -89.7520 C.ar  623  TRP623      0.0810
    132  CE3       12.1260   41.5990  -89.3850 C.ar  623  TRP623      0.0012
    133  CZ2       13.8000   43.7280  -88.5730 C.ar  623  TRP623      0.0191
    134  CZ3       12.8560   41.5330  -88.2150 C.ar  623  TRP623      0.0001
    135  CH2       13.6840   42.5920  -87.8190 C.ar  623  TRP623      0.0015
    136  N         12.0000   36.7970  -91.9170 N.3   626  TYR626     -0.1241
    137  CA        11.8360   36.5050  -90.5110 C.3   626  TYR626      0.1605
    138  C         10.4570   35.9710  -90.1680 C.2   626  TYR626      0.2264
    139  O          9.5200   36.1530  -90.9310 O.2   626  TYR626     -0.2867
    140  CB        12.1750   37.7250  -89.6570 C.3   626  TYR626      0.0534
    141  CG        12.5250   37.2960  -88.2600 C.ar  626  TYR626     -0.0201
    142  CD1       13.5170   36.3370  -88.0460 C.ar  626  TYR626     -0.0009
    143  CD2       11.7920   37.7460  -87.1640 C.ar  626  TYR626     -0.0009
    144  CE1       13.7600   35.8270  -86.7960 C.ar  626  TYR626      0.0417
    145  CE2       12.0290   37.2390  -85.8950 C.ar  626  TYR626      0.0417
    146  CZ        13.0120   36.2740  -85.7250 C.ar  626  TYR626      0.1957
    147  OH        13.2130   35.7290  -84.4890 O.3   626  TYR626     -0.2866
    148  N          6.6150   37.7750  -84.6540 N.3   630  TYR630     -0.1241
    149  CA         7.4700   38.9220  -84.3700 C.3   630  TYR630      0.1605
    150  C          7.3590   40.0320  -85.4030 C.2   630  TYR630      0.2264
    151  O          6.9070   41.1290  -85.0930 O.2   630  TYR630     -0.2867
    152  CB         8.9220   38.4790  -84.2840 C.3   630  TYR630      0.0534
    153  CG         9.8640   39.5790  -83.8780 C.ar  630  TYR630     -0.0201
    154  CD1        9.9890   39.9550  -82.5440 C.ar  630  TYR630     -0.0009
    155  CD2       10.6450   40.2390  -84.8240 C.ar  630  TYR630     -0.0009
    156  CE1       10.8690   40.9520  -82.1610 C.ar  630  TYR630      0.0417
    157  CE2       11.5330   41.2450  -84.4490 C.ar  630  TYR630      0.0417
    158  CZ        11.6390   41.5910  -83.1140 C.ar  630  TYR630      0.1957
    159  OH        12.5260   42.5630  -82.7230 O.3   630  TYR630     -0.2866
    160  N          4.1050   41.9480  -85.8880 N.3   633  ARG633     -0.1245
    161  CA         3.7360   42.7450  -84.7230 C.3   633  ARG633      0.1563
    162  C          4.1650   44.1990  -84.9160 C.2   633  ARG633      0.2260
    163  O          3.4900   45.1210  -84.4600 O.2   633  ARG633     -0.2867
    164  CB         4.3830   42.1510  -83.4630 C.3   633  ARG633      0.0307
    165  CG         4.1670   42.9450  -82.1810 C.3   633  ARG633      0.0489
    166  CD         4.2730   42.0460  -80.9540 C.3   633  ARG633      0.2205
    167  NE         5.5330   41.3120  -80.8640 N.pl3 633  ARG633     -0.0865
    168  CZ         5.6340   40.0650  -80.4100 C.cat 633  ARG633      0.5346
    169  NH1        4.5500   39.4100  -80.0140 N.pl3 633  ARG633      0.1354
    170  NH2        6.8160   39.4740  -80.3380 N.pl3 633  ARG633      0.1354
    171  N         16.7180   30.3420  -86.2220 N.3   674  ASN674     -0.1225
    172  CA        16.0010   31.5840  -85.9510 C.3   674  ASN674      0.1785
    173  C         16.1070   32.5610  -87.1350 C.2   674  ASN674      0.2597
    174  O         15.1310   32.8350  -87.8290 O.2   674  ASN674     -0.2718
    175  CB        16.5820   32.2240  -84.7040 C.3   674  ASN674      0.1169
    176  CG        15.6210   33.1590  -84.0400 C.2   674  ASN674      0.2627
    177  OD1       14.7700   33.7540  -84.6910 O.2   674  ASN674     -0.2716
    178  ND2       15.7570   33.3080  -82.7350 N.am  674  ASN674     -0.0877
    179  N         17.3050   33.0980  -87.3380 N.am  675  VAL675     -0.1980
    180  CA        17.5960   34.0050  -88.4410 C.3   675  VAL675      0.1595
    181  C         18.3580   33.0740  -89.3780 C.2   675  VAL675      0.2287
    182  O         19.5610   32.8880  -89.2620 O.2   675  VAL675     -0.2864
    183  CB        18.4730   35.1400  -87.9600 C.3   675  VAL675      0.0276
    184  CG1       18.6480   36.1410  -89.0430 C.3   675  VAL675      0.0022
    185  CG2       17.8420   35.7790  -86.7620 C.3   675  VAL675      0.0022
    186  N         22.0540   30.1760  -83.4960 N.3   704  HIS704     -0.1241
    187  CA        21.8520   31.6020  -83.7060 C.3   704  HIS704      0.1621
    188  C         22.6680   32.2800  -82.6330 C.2   704  HIS704      0.2264
    189  O         22.8810   33.4800  -82.6720 O.2   704  HIS704     -0.2867
    190  CB        20.3880   32.0030  -83.5300 C.3   704  HIS704      0.0745
    191  CG        20.1490   33.4810  -83.6410 C.ar  704  HIS704      0.0817
    192  ND1       20.3650   34.1870  -84.8050 N.ar  704  HIS704     -0.2268
    193  CD2       19.7200   34.3870  -82.7300 C.ar  704  HIS704      0.1154
    194  CE1       20.0800   35.4620  -84.6050 C.ar  704  HIS704      0.1986
    195  NE2       19.6860   35.6100  -83.3550 N.ar  704  HIS704     -0.2212
@<TRIPOS>BOND
     1   122   123    1
     2   124   123    1
     3   124   125    2
     4   123   126    1
     5   126   127    1
     6   136   137    1
     7   117   118    2
     8   117   116    1
     9   128   127   ar
    10   128   130   ar
    11   127   129   ar
    12   139   138    2
    13   130   131   ar
    14   120   119    1
    15   116   115    1
    16   116   119    1
    17   137   138    1
    18   137   140    1
    19   129   131   ar
    20   129   132   ar
    21   119   121    1
    22   131   133   ar
    23   140   141    1
    24   132   134   ar
    25   181   182    2
    26   181   180    1
    27   184   183    1
    28   133   135   ar
    29   180   183    1
    30   180   179    1
    31   141   142   ar
    32   141   143   ar
    33   134   135   ar
    34   142   144   ar
    35   183   185    1
    36   174   173    2
    37   179   173   am
    38   143   145   ar
    39   173   172    1
    40   144   146   ar
    41   171   172    1
    42   100    99    2
    43   172   175    1
    44   114   113    1
    45   145   146   ar
    46   160   161    1
    47   106   105    2
    48   146   147    1
    49   150   151    2
    50   150   149    1
    51   113   111   ar
    52   113   112   ar
    53   111   109   ar
    54    99    98    1
    55    99   103   am
    56   162   161    1
    57   162   163    2
    58   112   110   ar
    59   155   157   ar
    60   155   153   ar
    61   105   104    1
    62   192   194   ar
    63   192   191   ar
    64   161   164    1
    65   175   176    1
    66   177   176    2
    67   104   103    1
    68   104   107    1
    69   109   108   ar
    70   148   149    1
    71   194   195   ar
    72   157   158   ar
    73    98    97    1
    74    98   101    1
    75   149   152    1
    76   110   108   ar
    77   152   153    1
    78   108   107    1
    79   176   178   am
    80   153   154   ar
    81   187   190    1
    82   187   186    1
    83   187   188    1
    84   191   190    1
    85   191   193   ar
    86   164   165    1
    87   195   193   ar
    88   102   101    1
    89   158   159    1
    90   158   156   ar
    91   189   188    2
    92    88    87    2
    93   154   156   ar
    94    39    37   ar
    95    36    37    1
    96    36    35    1
    97   165   166    1
    98    37    38   ar
    99    87    86    1
   100    35    32    1
   101    27    26    1
   102    27    28    1
   103   166   167    1
   104    86    85    1
   105    86    89    1
   106   167   168    2
   107    26    23    1
   108    93    91   ar
   109    93    95   ar
   110    96    95    1
   111   168   170    1
   112   168   169    1
   113    28    30   ar
   114    28    29   ar
   115    91    90   ar
   116    95    94   ar
   117    47    45    1
   118    32    31    1
   119    32    33    1
   120    31    24   am
   121    10     9    1
   122    90    89    1
   123    90    92   ar
   124    94    92   ar
   125    45    44    1
   126    23    24    1
   127    23    22    1
   128    24    25    2
   129    33    34    2
   130    33    40   am
   131    11     9    1
   132     9     8    2
   133    40    41    1
   134     1     2    1
   135    44    41    1
   136    44    46    1
   137    72    70   ar
   138    72    73   ar
   139    41    42    1
   140    70    68   ar
   141     5     2    1
   142     5     6    1
   143    66    65    2
   144     8     7    1
   145     2     3    1
   146     7     6    1
   147    73    71   ar
   148    65    64    1
   149    65    74   am
   150    64    67    1
   151    64    63    1
   152    68    67    1
   153    68    69   ar
   154    42    48   am
   155    42    43    2
   156     3    12   am
   157     3     4    2
   158    48    49    1
   159    12    13    1
   160    71    69   ar
   161    74    75    1
   162    51    50    2
   163    56    54   ar
   164    56    58   ar
   165    75    78    1
   166    75    76    1
   167    54    53   ar
   168    78    79    1
   169    18    20   ar
   170    18    17   ar
   171    20    21   ar
   172    13    14    1
   173    13    16    1
   174    58    57   ar
   175    14    15    2
   176    49    50    1
   177    49    52    1
   178    50    59   am
   179    53    52    1
   180    53    55   ar
   181    76    77    2
   182    17    16    1
   183    17    19   ar
   184    79    80    1
   185    21    19   ar
   186    80    81    1
   187    57    55   ar
   188    60    59    1
   189    60    61    1
   190    61    62    2
   191    81    82    2
   192    83    82    1
   193    82    84    1
