@<TRIPOS>MOLECULE
tmp/2oagB00.pdb
 191 185 0 0 0
SMALL
GASTEIGER

@<TRIPOS>ATOM
      1  N         30.2550   -4.5200   61.6360 N.3    87  ARG87      -0.1245
      2  CA        31.1550   -3.9480   60.6430 C.3    87  ARG87       0.1563
      3  C         32.3880   -4.7940   60.3370 C.2    87  ARG87       0.2260
      4  O         32.8310   -4.8610   59.1860 O.2    87  ARG87      -0.2867
      5  CB        31.5660   -2.5400   61.0760 C.3    87  ARG87       0.0307
      6  CG        32.9410   -2.1180   60.6230 C.3    87  ARG87       0.0489
      7  CD        32.9190   -0.7490   60.0030 C.3    87  ARG87       0.2205
      8  NE        32.1670    0.2360   60.7750 N.pl3  87  ARG87      -0.0865
      9  CZ        31.6580    1.3430   60.2390 C.cat  87  ARG87       0.5346
     10  NH1       31.8310    1.5820   58.9490 N.pl3  87  ARG87       0.1354
     11  NH2       30.9700    2.2060   60.9740 N.pl3  87  ARG87       0.1354
     12  N         33.5780   -1.6850   67.0350 N.3   167  GLU167     -0.1231
     13  CA        33.3280   -0.4910   66.2450 C.3   167  GLU167      0.1699
     14  C         34.1300    0.7520   66.6570 C.2   167  GLU167      0.2592
     15  O         34.7060    1.4210   65.8120 O.2   167  GLU167     -0.2718
     16  CB        31.8230   -0.1880   66.3000 C.3   167  GLU167      0.0402
     17  CG        31.3760    1.1280   65.6830 C.3   167  GLU167      0.1161
     18  CD        31.3230    1.1030   64.1650 C.2   167  GLU167      0.3649
     19  OE1       31.4310    0.0130   63.5640 O.co2 167  GLU167     -0.2457
     20  OE2       31.1540    2.1860   63.5650 O.co2 167  GLU167     -0.2457
     21  N         34.1970    1.0400   67.9530 N.am  168  GLU168     -0.1966
     22  CA        34.8540    2.2570   68.4230 C.3   168  GLU168      0.1733
     23  C         36.3300    2.2730   68.7980 C.2   168  GLU168      0.2616
     24  O         36.9920    3.3010   68.6320 O.2   168  GLU168     -0.2715
     25  CB        34.0560    2.8360   69.5960 C.3   168  GLU168      0.0429
     26  CG        32.5730    3.0380   69.3040 C.3   168  GLU168      0.1163
     27  CD        32.3360    3.8980   68.0800 C.2   168  GLU168      0.3649
     28  OE1       33.3110    4.4740   67.5610 O.co2 168  GLU168     -0.2457
     29  OE2       31.1750    4.0000   67.6440 O.co2 168  GLU168     -0.2457
     30  N         36.8670    1.1740   69.3110 N.am  169  VAL169     -0.1977
     31  CA        38.2650    1.2070   69.7040 C.3   169  VAL169      0.1596
     32  C         39.2550    0.3610   68.9250 C.2   169  VAL169      0.2287
     33  O         40.3440    0.8320   68.6100 O.2   169  VAL169     -0.2864
     34  CB        38.4190    0.9130   71.2190 C.3   169  VAL169      0.0276
     35  CG1       37.1860    0.2410   71.7420 C.3   169  VAL169      0.0022
     36  CG2       39.6580    0.0550   71.4760 C.3   169  VAL169      0.0022
     37  N         38.4360   -1.4070   65.8740 N.3   171  SER171     -0.1217
     38  CA        38.1050   -1.5050   64.4520 C.3   171  SER171      0.1889
     39  C         38.3380   -2.9260   63.9840 C.2   171  SER171      0.2288
     40  O         38.7550   -3.1690   62.8510 O.2   171  SER171     -0.2866
     41  CB        38.9620   -0.5540   63.6180 C.3   171  SER171      0.2089
     42  OG        38.3430    0.7120   63.4880 O.3   171  SER171     -0.2183
     43  N         43.7360   10.5960   67.3710 N.3   318  ARG318     -0.1231
     44  CA        42.7600   11.0160   66.3770 C.3   318  ARG318      0.1694
     45  C         41.4370   10.3570   66.7490 C.2   318  ARG318      0.2592
     46  O         40.4250   11.0270   66.9210 O.2   318  ARG318     -0.2718
     47  CB        43.2260   10.6170   64.9710 C.3   318  ARG318      0.0321
     48  CG        44.4610   11.4130   64.5270 C.3   318  ARG318      0.0489
     49  CD        44.7650   11.2620   63.0420 C.3   318  ARG318      0.2205
     50  NE        45.7160   12.2770   62.5890 N.pl3 318  ARG318     -0.0865
     51  CZ        46.9880   12.0430   62.2790 C.cat 318  ARG318      0.5346
     52  NH1       47.4770   10.8170   62.3660 N.pl3 318  ARG318      0.1354
     53  NH2       47.7740   13.0380   61.8830 N.pl3 318  ARG318      0.1354
     54  N         41.4630    9.0400   66.8900 N.am  319  PHE319     -0.1962
     55  CA        40.2840    8.2770   67.2890 C.3   319  PHE319      0.1771
     56  C         40.6210    7.5100   68.5650 C.2   319  PHE319      0.2619
     57  O         39.7660    7.2900   69.4200 O.2   319  PHE319     -0.2715
     58  CB        39.8490    7.3430   66.1520 C.3   319  PHE319      0.0574
     59  CG        39.1710    8.0700   65.0290 C.ar  319  PHE319     -0.0200
     60  CD1       37.8290    8.4120   65.1230 C.ar  319  PHE319     -0.0042
     61  CD2       39.8830    8.4840   63.9140 C.ar  319  PHE319     -0.0042
     62  CE1       37.2120    9.1570   64.1260 C.ar  319  PHE319     -0.0003
     63  CE2       39.2720    9.2300   62.9140 C.ar  319  PHE319     -0.0003
     64  CZ        37.9360    9.5670   63.0190 C.ar  319  PHE319     -0.0000
     65  N         41.8850    7.1250   68.6880 N.am  320  ARG320     -0.1977
     66  CA        42.3950    6.4210   69.8640 C.3   320  ARG320      0.1597
     67  C         43.8890    6.6940   69.8840 C.2   320  ARG320      0.2287
     68  O         44.4880    6.9970   68.8530 O.2   320  ARG320     -0.2864
     69  CB        42.1600    4.9100   69.7680 C.3   320  ARG320      0.0334
     70  CG        42.8730    4.2540   68.6070 C.3   320  ARG320      0.0492
     71  CD        42.8880    2.7480   68.7160 C.3   320  ARG320      0.2205
     72  NE        43.3850    2.1450   67.4820 N.pl3 320  ARG320     -0.0865
     73  CZ        43.7840    0.8830   67.3730 C.cat 320  ARG320      0.5346
     74  NH1       44.2170    0.4180   66.2080 N.pl3 320  ARG320      0.1354
     75  NH2       43.7660    0.0920   68.4380 N.pl3 320  ARG320      0.1354
     76  N         30.0980   15.1740   55.4920 N.3   509  TYR509     -0.1241
     77  CA        30.3290   14.1760   56.5300 C.3   509  TYR509      0.1605
     78  C         30.5890   15.0520   57.7680 C.2   509  TYR509      0.2264
     79  O         29.7470   15.1460   58.6600 O.2   509  TYR509     -0.2867
     80  CB        31.5410   13.2920   56.2280 C.3   509  TYR509      0.0534
     81  CG        31.6570   12.1770   57.2450 C.ar  509  TYR509     -0.0201
     82  CD1       30.6510   11.2180   57.3680 C.ar  509  TYR509     -0.0009
     83  CD2       32.7100   12.1410   58.1470 C.ar  509  TYR509     -0.0009
     84  CE1       30.6920   10.2590   58.3640 C.ar  509  TYR509      0.0417
     85  CE2       32.7620   11.1900   59.1510 C.ar  509  TYR509      0.0417
     86  CZ        31.7550   10.2500   59.2580 C.ar  509  TYR509      0.1957
     87  OH        31.8210    9.3030   60.2590 O.3   509  TYR509     -0.2866
     88  N         25.3750    8.9970   57.9540 N.3   592  SER592     -0.1202
     89  CA        25.9530    8.8510   59.2860 C.3   592  SER592      0.2020
     90  C         26.1110   10.2050   59.9370 C.2   592  SER592      0.2618
     91  O         25.1410   10.9480   60.0660 O.2   592  SER592     -0.2717
     92  CB        27.3240    8.1920   59.1920 C.3   592  SER592      0.2103
     93  OG        27.2480    7.0050   58.4300 O.3   592  SER592     -0.2182
     94  N         27.3380   10.5280   60.3420 N.am  593  TYR593     -0.1975
     95  CA        27.5970   11.8260   60.9590 C.3   593  TYR593      0.1639
     96  C         27.1710   12.9300   59.9930 C.2   593  TYR593      0.2290
     97  O         26.6940   13.9860   60.4070 O.2   593  TYR593     -0.2864
     98  CB        29.0830   11.9900   61.2930 C.3   593  TYR593      0.0560
     99  CG        29.3380   13.1100   62.2850 C.ar  593  TYR593     -0.0198
    100  CD1       29.2670   14.4420   61.9020 C.ar  593  TYR593     -0.0009
    101  CD2       29.5950   12.8260   63.6220 C.ar  593  TYR593     -0.0009
    102  CE1       29.4400   15.4630   62.8270 C.ar  593  TYR593      0.0417
    103  CE2       29.7630   13.8270   64.5460 C.ar  593  TYR593      0.0417
    104  CZ        29.6840   15.1480   64.1480 C.ar  593  TYR593      0.1957
    105  OH        29.8290   16.1500   65.0840 O.3   593  TYR593     -0.2866
    106  N         20.5320    7.6320   57.5310 N.3   616  ALA616     -0.1245
    107  CA        20.9360    7.0680   58.8220 C.3   616  ALA616      0.1562
    108  C         21.6560    8.0810   59.7080 C.2   616  ALA616      0.2260
    109  O         22.7780    7.8500   60.1560 O.2   616  ALA616     -0.2867
    110  CB        21.8170    5.8640   58.6120 C.3   616  ALA616      0.0290
    111  N         22.3750   10.6010   63.0800 N.3   618  VAL618     -0.1245
    112  CA        22.2910   10.5840   64.5360 C.3   618  VAL618      0.1561
    113  C         21.3650   11.7950   64.7380 C.2   618  VAL618      0.2260
    114  O         21.4790   12.7780   63.9940 O.2   618  VAL618     -0.2867
    115  CB        23.6670   10.8920   65.1980 C.3   618  VAL618      0.0252
    116  CG1       23.4780   11.3180   66.6400 C.3   618  VAL618      0.0019
    117  CG2       24.5600    9.6670   65.1410 C.3   618  VAL618      0.0019
    118  N         22.7600   12.8980   70.6440 N.3   621  TRP621     -0.1241
    119  CA        23.8690   12.1120   71.1450 C.3   621  TRP621      0.1605
    120  C         23.6080   11.0990   72.2390 C.2   621  TRP621      0.2264
    121  O         24.3280   10.1130   72.3410 O.2   621  TRP621     -0.2867
    122  CB        25.0130   13.0550   71.5110 C.3   621  TRP621      0.0550
    123  CG        25.5290   13.7210   70.2720 C.ar  621  TRP621      0.0003
    124  CD1       25.3640   15.0280   69.9080 C.ar  621  TRP621      0.0946
    125  CD2       26.1740   13.0740   69.1640 C.ar  621  TRP621      0.0152
    126  NE1       25.8600   15.2320   68.6450 N.ar  621  TRP621     -0.2442
    127  CE2       26.3570   14.0460   68.1630 C.ar  621  TRP621      0.0810
    128  CE3       26.6040   11.7640   68.9220 C.ar  621  TRP621      0.0012
    129  CZ2       26.9450   13.7510   66.9390 C.ar  621  TRP621      0.0191
    130  CZ3       27.1930   11.4710   67.7010 C.ar  621  TRP621      0.0001
    131  CH2       27.3550   12.4620   66.7250 C.ar  621  TRP621      0.0015
    132  N         23.4900    7.6090   70.7380 N.3   624  TYR624     -0.1241
    133  CA        24.6470    6.9320   70.1550 C.3   624  TYR624      0.1605
    134  C         25.5300    6.2740   71.2270 C.2   624  TYR624      0.2264
    135  O         25.3950    6.5670   72.4070 O.2   624  TYR624     -0.2867
    136  CB        25.4560    7.9220   69.3000 C.3   624  TYR624      0.0534
    137  CG        26.2720    7.2340   68.2290 C.ar  624  TYR624     -0.0201
    138  CD1       25.6710    6.3570   67.3280 C.ar  624  TYR624     -0.0009
    139  CD2       27.6440    7.4100   68.1530 C.ar  624  TYR624     -0.0009
    140  CE1       26.4150    5.6720   66.3930 C.ar  624  TYR624      0.0417
    141  CE2       28.3990    6.7290   67.2180 C.ar  624  TYR624      0.0417
    142  CZ        27.7830    5.8590   66.3480 C.ar  624  TYR624      0.1957
    143  OH        28.5500    5.1430   65.4680 O.3   624  TYR624     -0.2866
    144  N         32.2560    6.4630   71.4040 N.3   628  TYR628     -0.1241
    145  CA        32.3770    7.5130   70.4000 C.3   628  TYR628      0.1605
    146  C         31.8350    8.8590   70.8720 C.2   628  TYR628      0.2264
    147  O         32.5340    9.8690   70.8250 O.2   628  TYR628     -0.2867
    148  CB        31.6640    7.0950   69.1090 C.3   628  TYR628      0.0534
    149  CG        31.7680    8.1090   67.9840 C.ar  628  TYR628     -0.0201
    150  CD1       30.8480    9.1450   67.8600 C.ar  628  TYR628     -0.0009
    151  CD2       32.7860    8.0250   67.0430 C.ar  628  TYR628     -0.0009
    152  CE1       30.9440   10.0680   66.8200 C.ar  628  TYR628      0.0417
    153  CE2       32.8890    8.9410   66.0070 C.ar  628  TYR628      0.0417
    154  CZ        31.9680    9.9560   65.9000 C.ar  628  TYR628      0.1957
    155  OH        32.0850   10.8490   64.8640 O.3   628  TYR628     -0.2866
    156  N         33.7300   10.5840   73.8470 N.3   631  ARG631     -0.1245
    157  CA        35.0670   11.0250   73.4810 C.3   631  ARG631      0.1563
    158  C         35.0610   12.5160   73.1270 C.2   631  ARG631      0.2260
    159  O         35.9760   13.2520   73.4910 O.2   631  ARG631     -0.2867
    160  CB        35.5730   10.1990   72.2990 C.3   631  ARG631      0.0307
    161  CG        37.0000   10.5010   71.8860 C.3   631  ARG631      0.0489
    162  CD        37.6130    9.2670   71.2390 C.3   631  ARG631      0.2205
    163  NE        36.9910    8.9340   69.9700 N.pl3 631  ARG631     -0.0865
    164  CZ        36.7600    7.6960   69.5380 C.cat 631  ARG631      0.5346
    165  NH1       37.0820    6.6350   70.2720 N.pl3 631  ARG631      0.1354
    166  NH2       36.2250    7.5200   68.3450 N.pl3 631  ARG631      0.1354
    167  N         24.0450    0.1560   64.4320 N.3   672  ASN672     -0.1225
    168  CA        24.9800    1.2340   64.7660 C.3   672  ASN672      0.1785
    169  C         24.2000    2.4920   65.1460 C.2   672  ASN672      0.2597
    170  O         24.1540    2.8790   66.3150 O.2   672  ASN672     -0.2718
    171  CB        25.8690    1.4970   63.5570 C.3   672  ASN672      0.1169
    172  CG        27.1260    2.2420   63.9080 C.2   672  ASN672      0.2627
    173  OD1       27.1050    3.2050   64.6780 O.2   672  ASN672     -0.2716
    174  ND2       28.2360    1.8150   63.3260 N.am  672  ASN672     -0.0877
    175  N         23.6110    3.1430   64.1480 N.am  673  VAL673     -0.1980
    176  CA        22.7750    4.3140   64.3930 C.3   673  VAL673      0.1595
    177  C         21.3630    3.7350   64.3210 C.2   673  VAL673      0.2287
    178  O         20.8070    3.5400   63.2400 O.2   673  VAL673     -0.2864
    179  CB        22.9370    5.3850   63.3040 C.3   673  VAL673      0.0276
    180  CG1       21.9490    6.5110   63.5470 C.3   673  VAL673      0.0022
    181  CG2       24.3520    5.9250   63.3180 C.3   673  VAL673      0.0022
    182  N         23.4380    0.0130   58.8580 N.3   702  HIS702     -0.1241
    183  CA        24.0300    1.3180   58.6150 C.3   702  HIS702      0.1621
    184  C         24.6360    1.5180   57.2300 C.2   702  HIS702      0.2264
    185  O         24.7580    2.6450   56.7490 O.2   702  HIS702     -0.2867
    186  CB        25.0790    1.6240   59.6890 C.3   702  HIS702      0.0745
    187  CG        25.3660    3.0820   59.8410 C.ar  702  HIS702      0.0817
    188  ND1       24.3850    3.9980   60.1530 N.ar  702  HIS702     -0.2268
    189  CD2       26.5070    3.7900   59.6730 C.ar  702  HIS702      0.1154
    190  CE1       24.9100    5.2100   60.1660 C.ar  702  HIS702      0.1986
    191  NE2       26.1960    5.1110   59.8780 N.ar  702  HIS702     -0.2212
@<TRIPOS>BOND
     1    76    77    1
     2    80    77    1
     3    80    81    1
     4    77    78    1
     5   185   184    2
     6   184   183    1
     7    81    82   ar
     8    81    83   ar
     9    82    84   ar
    10   106   107    1
    11    78    79    2
    12    88    89    1
    13    83    85   ar
    14    84    86   ar
    15    93    92    1
    16   110   107    1
    17   183   182    1
    18   183   186    1
    19   107   108    1
    20    10     9    1
    21    85    86   ar
    22     4     3    2
    23    92    89    1
    24    86    87    1
    25    89    90    1
    26   189   187   ar
    27   189   191   ar
    28   186   187    1
    29   108   109    2
    30   187   188   ar
    31   191   190   ar
    32    90    91    2
    33    90    94   am
    34    96    97    2
    35    96    95    1
    36     7     6    1
    37     7     8    1
    38   188   190   ar
    39     9     8    2
    40     9    11    1
    41     3     2    1
    42    94    95    1
    43     6     5    1
    44     2     5    1
    45     2     1    1
    46    95    98    1
    47    98    99    1
    48    53    51    1
    49   100    99   ar
    50   100   102   ar
    51    51    52    1
    52    51    50    2
    53    99   101   ar
    54    50    49    1
    55   102   104   ar
    56    40    39    2
    57    63    64   ar
    58    63    61   ar
    59    64    62   ar
    60    49    48    1
    61   111   112    1
    62   178   177    2
    63   179   181    1
    64   179   180    1
    65   179   176    1
    66   174   172   am
    67    42    41    1
    68   171   172    1
    69   171   168    1
    70    19    18   ar
    71    20    18   ar
    72    41    38    1
    73   101   103   ar
    74   172   173    2
    75    61    59   ar
    76    39    38    1
    77   114   113    2
    78    62    60   ar
    79   104   103   ar
    80   104   105    1
    81   175   176    1
    82   175   169   am
    83    18    17    1
    84   177   176    1
    85   167   168    1
    86    38    37    1
    87    48    47    1
    88   112   113    1
    89   112   115    1
    90   168   169    1
    91   155   154    1
    92    47    44    1
    93    59    60   ar
    94    59    58    1
    95   117   115    1
    96   169   170    2
    97   115   116    1
    98   143   142    1
    99    17    16    1
   100    15    14    2
   101   154   153   ar
   102   154   152   ar
   103   153   151   ar
   104    58    55    1
   105    74    73    1
   106    13    16    1
   107    13    14    1
   108    13    12    1
   109   142   140   ar
   110   142   141   ar
   111    44    45    1
   112    44    43    1
   113   140   138   ar
   114    14    21   am
   115   131   129   ar
   116   131   130   ar
   117    45    54   am
   118    45    46    2
   119   152   150   ar
   120    54    55    1
   121   129   127   ar
   122   151   149   ar
   123   141   139   ar
   124    55    56    1
   125   138   137   ar
   126    73    72    2
   127    73    75    1
   128    72    71    1
   129    28    27   ar
   130    29    27   ar
   131   130   128   ar
   132   150   149   ar
   133    21    22    1
   134   149   148    1
   135    27    26    1
   136   139   137   ar
   137   127   126   ar
   138   127   125   ar
   139   137   136    1
   140   166   164    1
   141    22    23    1
   142    22    25    1
   143    56    65   am
   144    56    57    2
   145    70    71    1
   146    70    69    1
   147    33    32    2
   148    24    23    2
   149   126   124   ar
   150    65    66    1
   151    23    30   am
   152    68    67    2
   153   128   125   ar
   154    32    31    1
   155   148   145    1
   156   125   123   ar
   157   136   133    1
   158    26    25    1
   159    30    31    1
   160   164   163    2
   161   164   165    1
   162    31    34    1
   163    69    66    1
   164    66    67    1
   165   124   123   ar
   166   163   162    1
   167   133   132    1
   168   133   134    1
   169   123   122    1
   170   145   146    1
   171   145   144    1
   172   118   119    1
   173   147   146    2
   174   119   122    1
   175   119   120    1
   176    34    36    1
   177    34    35    1
   178   134   135    2
   179   162   161    1
   180   161   160    1
   181   120   121    2
   182   160   157    1
   183   158   157    1
   184   158   159    2
   185   157   156    1
