@<TRIPOS>MOLECULE
tmp/2oahA00.pdb
 229 221 0 0 0
SMALL
GASTEIGER

@<TRIPOS>ATOM
      1  N         35.9110   49.4030    9.7440 N.3    15  LYS15      -0.1231
      2  CA        34.5460   49.9310    9.7830 C.3    15  LYS15       0.1693
      3  C         33.5800   48.9820    9.0750 C.2    15  LYS15       0.2593
      4  O         33.9950   48.0430    8.4330 O.2    15  LYS15      -0.2718
      5  CB        34.4940   51.3000    9.0950 C.3    15  LYS15       0.0285
      6  CG        35.4480   52.3350    9.6660 C.3    15  LYS15       0.0035
      7  CD        35.3820   53.6110    8.8380 C.3    15  LYS15       0.0206
      8  CE        36.4130   54.6590    9.2400 C.3    15  LYS15       0.1093
      9  NZ        36.2910   55.0530   10.6740 N.3    15  LYS15      -0.1314
     10  N         32.2840   49.2540    9.1930 N.am   16  SER16      -0.1938
     11  CA        31.2600   48.4120    8.5750 C.3    16  SER16       0.2055
     12  C         31.2960   48.4280    7.0470 C.2    16  SER16       0.2644
     13  O         31.0120   47.4270    6.4060 O.2    16  SER16      -0.2714
     14  CB        29.8710   48.8510    9.0430 C.3    16  SER16       0.2130
     15  OG        29.5930   50.1700    8.6120 O.3    16  SER16      -0.2179
     16  N         31.6380   49.5760    6.4720 N.am   17  GLY17      -0.1939
     17  CA        31.6840   49.6860    5.0290 C.3    17  GLY17       0.2014
     18  C         32.8430   48.9640    4.3700 C.2    17  GLY17       0.2639
     19  O         32.6830   48.3810    3.3000 O.2    17  GLY17      -0.2714
     20  N         34.0110   48.9950    5.0030 N.am   18  GLN18      -0.1963
     21  CA        35.1860   48.3530    4.4250 C.3    18  GLN18       0.1733
     22  C         35.6370   47.0750    5.1210 C.2    18  GLN18       0.2617
     23  O         36.4530   46.3440    4.5870 O.2    18  GLN18      -0.2715
     24  CB        36.3410   49.3530    4.3620 C.3    18  GLN18       0.0408
     25  CG        36.1320   50.4500    3.3160 C.3    18  GLN18       0.0908
     26  CD        37.2990   51.4190    3.2130 C.2    18  GLN18       0.2608
     27  OE1       37.4700   52.0890    2.1950 O.2    18  GLN18      -0.2717
     28  NE2       38.1000   51.5080    4.2710 N.am   18  GLN18      -0.0878
     29  N         35.1020   46.8240    6.3120 N.am   19  GLY19      -0.1940
     30  CA        35.4400   45.6190    7.0460 C.3    19  GLY19       0.2014
     31  C         36.2770   45.7880    8.3020 C.2    19  GLY19       0.2638
     32  O         37.0720   46.7180    8.4200 O.2    19  GLY19      -0.2714
     33  N         36.0800   44.8760    9.2500 N.am   20  TYR20      -0.1973
     34  CA        36.8400   44.8760   10.4950 C.3    20  TYR20       0.1639
     35  C         37.9220   43.8180   10.3380 C.2    20  TYR20       0.2290
     36  O         37.6660   42.7380    9.8180 O.2    20  TYR20      -0.2864
     37  CB        35.9430   44.5290   11.6820 C.3    20  TYR20       0.0560
     38  CG        35.0080   45.6450   12.0960 C.ar   20  TYR20      -0.0198
     39  CD1       33.7900   45.8440   11.4480 C.ar   20  TYR20      -0.0009
     40  CD2       35.3520   46.5100   13.1360 C.ar   20  TYR20      -0.0009
     41  CE1       32.9320   46.8840   11.8270 C.ar   20  TYR20       0.0417
     42  CE2       34.5070   47.5490   13.5230 C.ar   20  TYR20       0.0417
     43  CZ        33.3010   47.7310   12.8640 C.ar   20  TYR20       0.1957
     44  OH        32.4730   48.7640   13.2460 O.3    20  TYR20      -0.2866
     45  N         40.6220   40.2570    7.3910 N.3    36  LEU36      -0.1245
     46  CA        39.1990   40.5430    7.5700 C.3    36  LEU36       0.1561
     47  C         38.5040   39.4630    8.3890 C.2    36  LEU36       0.2260
     48  O         38.6280   38.2960    8.0910 O.2    36  LEU36      -0.2867
     49  CB        38.5050   40.6410    6.2050 C.3    36  LEU36       0.0270
     50  CG        36.9850   40.8320    6.2540 C.3    36  LEU36       0.0019
     51  CD1       36.6750   42.2470    6.7010 C.3    36  LEU36       0.0001
     52  CD2       36.3720   40.5650    4.8870 C.3    36  LEU36       0.0001
     53  N         35.5220   37.4690    8.9950 N.3    38  ASP38      -0.1239
     54  CA        34.3120   37.1360    8.2450 C.3    38  ASP38       0.1674
     55  C         33.5800   35.8820    8.7110 C.2    38  ASP38       0.2266
     56  O         33.9800   34.7710    8.3880 O.2    38  ASP38      -0.2867
     57  CB        34.6650   36.9990    6.7540 C.3    38  ASP38       0.1410
     58  CG        33.4500   36.7260    5.8860 C.2    38  ASP38       0.3668
     59  OD1       32.3380   37.1170    6.2950 O.co2  38  ASP38      -0.2456
     60  OD2       33.6080   36.1340    4.7940 O.co2  38  ASP38      -0.2456
     61  N         30.8580   34.9900    7.6640 N.3    40  GLY40      -0.1210
     62  CA        30.0140   34.5810    6.5520 C.3    40  GLY40       0.1956
     63  C         30.6720   33.6650    5.5250 C.2    40  GLY40       0.2612
     64  O         30.0760   33.3830    4.4850 O.2    40  GLY40      -0.2717
     65  N         31.9010   33.2240    5.7910 N.am   41  SER41      -0.1952
     66  CA        32.6160   32.3130    4.8940 C.3    41  SER41       0.1924
     67  C         33.5120   31.4040    5.7420 C.2    41  SER41       0.2314
     68  O         33.5900   31.5730    6.9450 O.2    41  SER41      -0.2863
     69  CB        33.4460   33.0810    3.8530 C.3    41  SER41       0.2116
     70  OG        34.5720   33.7040    4.4360 O.3    41  SER41      -0.2180
     71  N         34.0110   32.4570   -4.5810 N.3    76  PRO76      -0.2102
     72  CA        33.1870   33.5880   -4.9980 C.3    76  PRO76       0.1504
     73  C         32.3420   34.0350   -3.8050 C.2    76  PRO76       0.2576
     74  O         31.8810   33.2030   -3.0170 O.2    76  PRO76      -0.2718
     75  CB        32.3410   32.9890   -6.1120 C.3    76  PRO76       0.0282
     76  CG        32.0330   31.6270   -5.5590 C.3    76  PRO76       0.0208
     77  CD        33.3540   31.1790   -4.9190 C.3    76  PRO76       0.0893
     78  N         32.1650   35.3420   -3.6580 N.am   77  TYR77      -0.1963
     79  CA        31.3500   35.8900   -2.5790 C.3    77  TYR77       0.1771
     80  C         30.2080   36.6450   -3.2410 C.2    77  TYR77       0.2620
     81  O         30.0640   36.6170   -4.4540 O.2    77  TYR77      -0.2715
     82  CB        32.1710   36.8660   -1.7230 C.3    77  TYR77       0.0574
     83  CG        33.3880   36.2530   -1.0680 C.ar   77  TYR77      -0.0198
     84  CD1       33.2730   35.4880    0.0970 C.ar   77  TYR77      -0.0009
     85  CD2       34.6570   36.4320   -1.6170 C.ar   77  TYR77      -0.0009
     86  CE1       34.4000   34.9200    0.6990 C.ar   77  TYR77       0.0417
     87  CE2       35.7810   35.8660   -1.0280 C.ar   77  TYR77       0.0417
     88  CZ        35.6490   35.1160    0.1270 C.ar   77  TYR77       0.1957
     89  OH        36.7750   34.5740    0.7040 O.3    77  TYR77      -0.2866
     90  N         29.3840   37.3090   -2.4410 N.am   78  THR78      -0.1937
     91  CA        28.3010   38.1030   -3.0010 C.3    78  THR78       0.2028
     92  C         28.9930   39.2680   -3.6910 C.2    78  THR78       0.2642
     93  O         28.5880   39.7150   -4.7480 O.2    78  THR78      -0.2714
     94  CB        27.3990   38.6830   -1.9090 C.3    78  THR78       0.1808
     95  OG1       26.9460   37.6280   -1.0610 O.3    78  THR78      -0.2208
     96  CG2       26.1960   39.3920   -2.5330 C.3    78  THR78       0.0379
     97  N         30.0600   39.7370   -3.0560 N.am   79  GLN79      -0.1976
     98  CA        30.8430   40.8480   -3.5530 C.3    79  GLN79       0.1601
     99  C         32.2660   40.3960   -3.8690 C.2    79  GLN79       0.2287
    100  O         33.0910   40.2630   -2.9700 O.2    79  GLN79      -0.2864
    101  CB        30.8660   41.9490   -2.4940 C.3    79  GLN79       0.0394
    102  CG        31.5250   43.2390   -2.9210 C.3    79  GLN79       0.0908
    103  CD        31.5460   44.2530   -1.8000 C.2    79  GLN79       0.2608
    104  OE1       32.5600   44.4450   -1.1340 O.2    79  GLN79      -0.2717
    105  NE2       30.4120   44.8980   -1.5760 N.am   79  GLN79      -0.0878
    106  N         37.5050   41.9980   -4.9790 N.3   114  PHE114     -0.1241
    107  CA        37.5630   41.4300   -3.6400 C.3   114  PHE114      0.1605
    108  C         38.1980   42.4140   -2.6610 C.2   114  PHE114      0.2264
    109  O         37.5460   42.8690   -1.7230 O.2   114  PHE114     -0.2867
    110  CB        38.3610   40.1240   -3.6520 C.3   114  PHE114      0.0534
    111  CG        38.5290   39.5100   -2.2910 C.ar  114  PHE114     -0.0203
    112  CD1       37.4220   39.0890   -1.5600 C.ar  114  PHE114     -0.0042
    113  CD2       39.7970   39.3590   -1.7360 C.ar  114  PHE114     -0.0042
    114  CE1       37.5760   38.5230   -0.2940 C.ar  114  PHE114     -0.0003
    115  CE2       39.9630   38.7970   -0.4760 C.ar  114  PHE114     -0.0003
    116  CZ        38.8520   38.3770    0.2480 C.ar  114  PHE114     -0.0000
    117  N         39.4770   45.7890   -1.0810 N.3   116  ILE116     -0.1245
    118  CA        38.8920   47.1200   -1.0650 C.3   116  ILE116      0.1561
    119  C         39.9580   48.1860   -0.8320 C.2   116  ILE116      0.2260
    120  O         40.7070   48.1310    0.1380 O.2   116  ILE116     -0.2867
    121  CB        37.8220   47.2200    0.0450 C.3   116  ILE116      0.0252
    122  CG1       36.7750   46.1170   -0.1510 C.3   116  ILE116      0.0019
    123  CG2       37.1750   48.6050    0.0280 C.3   116  ILE116      0.0019
    124  CD1       35.7540   46.0100    0.9680 C.3   116  ILE116      0.0001
    125  N         43.2680   45.8730    4.8850 N.3   121  TRP121     -0.1241
    126  CA        43.4010   44.4420    5.1400 C.3   121  TRP121      0.1605
    127  C         43.8520   43.7540    3.8540 C.2   121  TRP121      0.2264
    128  O         43.5260   44.1990    2.7450 O.2   121  TRP121     -0.2867
    129  CB        42.1130   43.7980    5.7070 C.3   121  TRP121      0.0550
    130  CG        40.8190   44.0120    4.9670 C.ar  121  TRP121      0.0003
    131  CD1       39.8630   44.9500    5.2460 C.ar  121  TRP121      0.0946
    132  CD2       40.3050   43.2290    3.8800 C.ar  121  TRP121      0.0152
    133  NE1       38.7860   44.7950    4.4060 N.ar  121  TRP121     -0.2442
    134  CE2       39.0300   43.7480    3.5570 C.ar  121  TRP121      0.0810
    135  CE3       40.7950   42.1370    3.1490 C.ar  121  TRP121      0.0012
    136  CZ2       38.2360   43.2130    2.5320 C.ar  121  TRP121      0.0191
    137  CZ3       40.0050   41.6030    2.1280 C.ar  121  TRP121      0.0001
    138  CH2       38.7390   42.1440    1.8310 C.ar  121  TRP121      0.0015
    139  N         41.5240   37.3460    4.4430 N.3   124  ILE124     -0.1245
    140  CA        40.2090   37.1050    5.0270 C.3   124  ILE124      0.1561
    141  C         40.2080   35.8490    5.9010 C.2   124  ILE124      0.2260
    142  O         40.7780   34.8250    5.5370 O.2   124  ILE124     -0.2867
    143  CB        39.1410   36.9700    3.9010 C.3   124  ILE124      0.0252
    144  CG1       37.7470   36.7800    4.5010 C.3   124  ILE124      0.0019
    145  CG2       39.4850   35.7910    2.9890 C.3   124  ILE124      0.0019
    146  CD1       36.6280   36.9320    3.4870 C.3   124  ILE124      0.0001
    147  N         26.5730   28.1050    7.7280 N.3   191  TYR191     -0.1241
    148  CA        26.7210   29.5410    7.9390 C.3   191  TYR191      0.1605
    149  C         26.3110   29.5850    9.4060 C.2   191  TYR191      0.2264
    150  O         25.9240   28.5620    9.9600 O.2   191  TYR191     -0.2867
    151  CB        25.6790   30.3260    7.1470 C.3   191  TYR191      0.0534
    152  CG        26.0430   30.5530    5.7110 C.ar  191  TYR191     -0.0201
    153  CD1       26.9980   31.5040    5.3640 C.ar  191  TYR191     -0.0009
    154  CD2       25.4590   29.7970    4.6940 C.ar  191  TYR191     -0.0009
    155  CE1       27.3710   31.6990    4.0410 C.ar  191  TYR191      0.0417
    156  CE2       25.8280   29.9820    3.3640 C.ar  191  TYR191      0.0417
    157  CZ        26.7870   30.9360    3.0490 C.ar  191  TYR191      0.1957
    158  OH        27.1720   31.1260    1.7430 O.3   191  TYR191     -0.2866
    159  N         26.5390   37.5970    9.7940 N.3   221  ASP221     -0.1225
    160  CA        27.7320   37.7740    8.9690 C.3   221  ASP221      0.1805
    161  C         28.4980   39.0680    9.2400 C.2   221  ASP221      0.2598
    162  O         28.0950   40.1320    8.8020 O.2   221  ASP221     -0.2718
    163  CB        27.2930   37.7290    7.4990 C.3   221  ASP221      0.1424
    164  CG        28.4560   37.6860    6.5290 C.2   221  ASP221      0.3668
    165  OD1       29.6180   37.7860    6.9700 O.co2 221  ASP221     -0.2456
    166  OD2       28.1940   37.5490    5.3130 O.co2 221  ASP221     -0.2456
    167  N         29.6140   38.9580    9.9550 N.am  222  SER222     -0.1938
    168  CA        30.4430   40.1170   10.2680 C.3   222  SER222      0.2055
    169  C         31.1440   40.6510    9.0160 C.2   222  SER222      0.2644
    170  O         31.6380   41.7780    9.0100 O.2   222  SER222     -0.2714
    171  CB        31.5040   39.7370   11.3030 C.3   222  SER222      0.2130
    172  OG        32.4170   38.8070   10.7510 O.3   222  SER222     -0.2179
    173  N         31.1830   39.8280    7.9680 N.am  223  GLY223     -0.1939
    174  CA        31.8320   40.2000    6.7210 C.3   223  GLY223      0.2014
    175  C         30.9330   40.7510    5.6220 C.2   223  GLY223      0.2640
    176  O         31.3020   40.7430    4.4550 O.2   223  GLY223     -0.2714
    177  N         29.7410   41.2040    5.9980 N.am  224  THR224     -0.1936
    178  CA        28.7930   41.8160    5.0630 C.3   224  THR224      0.2028
    179  C         28.4140   43.1320    5.7410 C.2   224  THR224      0.2643
    180  O         28.1800   43.1670    6.9350 O.2   224  THR224     -0.2714
    181  CB        27.5350   40.9330    4.8510 C.3   224  THR224      0.1808
    182  OG1       27.8770   39.8120    4.0200 O.3   224  THR224     -0.2208
    183  CG2       26.4170   41.7290    4.1730 C.3   224  THR224      0.0379
    184  N         28.3790   44.2190    4.9820 N.am  225  THR225     -0.1936
    185  CA        28.0660   45.5120    5.5700 C.3   225  THR225      0.2028
    186  C         26.6480   45.6820    6.1120 C.2   225  THR225      0.2642
    187  O         26.4540   45.9420    7.2950 O.2   225  THR225     -0.2714
    188  CB        28.3200   46.6570    4.5580 C.3   225  THR225      0.1808
    189  OG1       29.6970   46.6520    4.1610 O.3   225  THR225     -0.2208
    190  CG2       27.9760   48.0120    5.1860 C.3   225  THR225      0.0379
    191  N         25.6640   45.5130    5.2370 N.am  226  ASN226     -0.1971
    192  CA        24.2670   45.7390    5.5810 C.3   226  ASN226      0.1688
    193  C         23.4410   44.6540    6.2410 C.2   226  ASN226      0.2292
    194  O         23.8640   43.5150    6.4320 O.2   226  ASN226     -0.2864
    195  CB        23.4810   46.1430    4.3270 C.3   226  ASN226      0.1181
    196  CG        24.1060   47.3000    3.5760 C.2   226  ASN226      0.2629
    197  OD1       24.8470   48.0860    4.1290 O.2   226  ASN226     -0.2716
    198  ND2       23.7720   47.4090    2.2960 N.am  226  ASN226     -0.0877
    199  N         20.6760   42.6980    5.2710 N.3   228  ARG228     -0.1245
    200  CA        20.0670   42.3490    3.9970 C.3   228  ARG228      0.1563
    201  C         18.8070   41.5490    4.2780 C.2   228  ARG228      0.2260
    202  O         18.7930   40.6900    5.1560 O.2   228  ARG228     -0.2867
    203  CB        21.0480   41.5420    3.1370 C.3   228  ARG228      0.0307
    204  CG        22.4110   42.2220    2.9520 C.3   228  ARG228      0.0489
    205  CD        23.3610   41.4960    2.0040 C.3   228  ARG228      0.2205
    206  NE        22.8250   41.4800    0.6450 N.pl3 228  ARG228     -0.0865
    207  CZ        22.9210   40.4550   -0.1940 C.cat 228  ARG228      0.5346
    208  NH1       23.5430   39.3450    0.1760 N.pl3 228  ARG228      0.1354
    209  NH2       22.3580   40.5290   -1.3960 N.pl3 228  ARG228      0.1354
    210  N         24.3590   56.5150    3.9560 N.3   314  LYS314     -0.1245
    211  CA        23.7890   55.5790    3.0040 C.3   314  LYS314      0.1561
    212  C         22.8800   54.6520    3.8080 C.2   314  LYS314      0.2260
    213  O         23.2470   54.2060    4.8950 O.2   314  LYS314     -0.2867
    214  CB        24.8920   54.7620    2.3220 C.3   314  LYS314      0.0271
    215  CG        24.3750   53.7660    1.2920 C.3   314  LYS314      0.0035
    216  CD        25.4270   52.9440    0.5570 C.3   314  LYS314      0.0206
    217  CE        24.7280   52.0010   -0.4120 C.3   314  LYS314      0.1093
    218  NZ        25.6810   51.1460   -1.1730 N.3   314  LYS314     -0.1314
    219  N         19.3300   46.5390    2.7330 N.3   318  SER318     -0.1217
    220  CA        19.1740   46.2980    1.3030 C.3   318  SER318      0.1889
    221  C         18.5410   44.9480    0.9950 C.2   318  SER318      0.2288
    222  O         18.3360   44.1330    1.8860 O.2   318  SER318     -0.2866
    223  CB        20.5390   46.4170    0.6060 C.3   318  SER318      0.2089
    224  OG        21.5040   45.5770    1.2190 O.3   318  SER318     -0.2183
    225  N         27.4200   43.6610    9.5720 N.3   328  ALA328     -0.1245
    226  CA        28.1500   44.5140   10.5020 C.3   328  ALA328      0.1562
    227  C         27.3370   45.6460   11.1220 C.2   328  ALA328      0.2260
    228  O         27.4920   45.9310   12.2950 O.2   328  ALA328     -0.2867
    229  CB        29.3920   45.0850    9.8140 C.3   328  ALA328      0.0290
@<TRIPOS>BOND
     1    75    76    1
     2    75    72    1
     3    76    77    1
     4    72    71    1
     5    72    73    1
     6   106   107    1
     7    77    71    1
     8    93    92    2
     9    81    80    2
    10    99    98    1
    11    99   100    2
    12    73    78   am
    13    73    74    2
    14    92    97   am
    15    92    91    1
    16    78    79    1
    17   110   107    1
    18   110   111    1
    19   107   108    1
    20    98    97    1
    21    98   101    1
    22    80    79    1
    23    80    90   am
    24    91    90    1
    25    91    94    1
    26   102   101    1
    27   102   103    1
    28   108   109    2
    29    79    82    1
    30    96    94    1
    31   111   113   ar
    32   111   112   ar
    33    94    95    1
    34   103   105   am
    35   103   104    2
    36   113   115   ar
    37    82    83    1
    38    85    83   ar
    39    85    87   ar
    40   112   114   ar
    41   209   207    1
    42   218   217    1
    43   117   118    1
    44    83    84   ar
    45   118   119    1
    46   118   121    1
    47    87    88   ar
    48   119   120    2
    49   115   116   ar
    50   217   216    1
    51   114   116   ar
    52   207   208    1
    53   207   206    2
    54   122   121    1
    55   122   124    1
    56   123   121    1
    57    84    86   ar
    58    88    86   ar
    59    88    89    1
    60   216   215    1
    61   223   224    1
    62   223   220    1
    63   206   205    1
    64   221   220    1
    65   221   222    2
    66   215   214    1
    67   220   219    1
    68   158   157    1
    69   138   137   ar
    70   138   136   ar
    71   205   204    1
    72   137   135   ar
    73    27    26    2
    74   198   196   am
    75   214   211    1
    76   136   134   ar
    77   128   127    2
    78   204   203    1
    79   145   143    1
    80   211   212    1
    81   211   210    1
    82   157   156   ar
    83   157   155   ar
    84   203   200    1
    85   135   132   ar
    86    26    25    1
    87    26    28   am
    88    19    18    2
    89    25    24    1
    90   156   154   ar
    91   146   144    1
    92   134   132   ar
    93   134   133   ar
    94   196   197    2
    95   196   195    1
    96   212   213    2
    97    69    70    1
    98    69    66    1
    99   127   126    1
   100   132   130   ar
   101   143   144    1
   102   143   140    1
   103   200   201    1
   104   200   199    1
   105   182   181    1
   106   155   153   ar
   107   189   188    1
   108   183   181    1
   109   201   202    2
   110   195   192    1
   111    24    21    1
   112    18    20   am
   113    18    17    1
   114   133   131   ar
   115    21    20    1
   116    21    22    1
   117   139   140    1
   118   176   175    2
   119    64    63    2
   120   188   190    1
   121   188   185    1
   122    23    22    2
   123   154   152   ar
   124    60    58   ar
   125   181   178    1
   126   125   126    1
   127    52    50    1
   128    66    67    1
   129    66    65    1
   130   130   131   ar
   131   130   129    1
   132   184   185    1
   133   184   179   am
   134   140   141    1
   135    17    16    1
   136   178   179    1
   137   178   177    1
   138    22    29   am
   139   126   129    1
   140   191   192    1
   141   191   186   am
   142   166   164   ar
   143   153   152   ar
   144    63    65   am
   145    63    62    1
   146   142   141    2
   147   185   186    1
   148   192   193    1
   149   175   177   am
   150   175   174    1
   151   152   151    1
   152   179   180    2
   153    67    68    2
   154    58    59   ar
   155    58    57    1
   156   186   187    2
   157    49    50    1
   158    49    46    1
   159   193   194    2
   160    50    51    1
   161    29    30    1
   162    13    12    2
   163    16    12   am
   164   164   165   ar
   165   164   163    1
   166    62    61    1
   167   174   173    1
   168    57    54    1
   169    30    31    1
   170    12    11    1
   171   151   148    1
   172    45    46    1
   173   163   160    1
   174    46    47    1
   175   147   148    1
   176   148   149    1
   177   173   169   am
   178    48    47    2
   179    54    55    1
   180    54    53    1
   181    31    32    2
   182    31    33   am
   183    56    55    2
   184     4     3    2
   185    11    14    1
   186    11    10    1
   187    15    14    1
   188   162   161    2
   189     7     8    1
   190     7     6    1
   191   160   161    1
   192   160   159    1
   193   170   169    2
   194   169   168    1
   195     3    10   am
   196     3     2    1
   197     5     6    1
   198     5     2    1
   199   161   167   am
   200     8     9    1
   201    33    34    1
   202   149   150    2
   203   225   226    1
   204     1     2    1
   205   229   226    1
   206    36    35    2
   207   167   168    1
   208   168   171    1
   209    35    34    1
   210    34    37    1
   211   226   227    1
   212   172   171    1
   213   227   228    2
   214    39    41   ar
   215    39    38   ar
   216    37    38    1
   217    41    43   ar
   218    38    40   ar
   219    43    44    1
   220    43    42   ar
   221    40    42   ar
