@<TRIPOS>MOLECULE
tmp/2oalB00.pdb
 205 197 0 0 0
SMALL
GASTEIGER

@<TRIPOS>ATOM
      1  N        -19.5750   31.9660   31.5670 N.3    13  GLY13      -0.1210
      2  CA       -20.4850   31.0550   30.9000 C.3    13  GLY13       0.1956
      3  C        -19.6930   30.1960   29.9310 C.2    13  GLY13       0.2613
      4  O        -18.4940   29.9790   30.1170 O.2    13  GLY13      -0.2717
      5  N        -20.3510   29.7090   28.8890 N.am   14  THR14      -0.1938
      6  CA       -19.6660   28.8940   27.9030 C.3    14  THR14       0.2028
      7  C        -18.5700   29.7070   27.2070 C.2    14  THR14       0.2642
      8  O        -17.4510   29.2170   27.0140 O.2    14  THR14      -0.2714
      9  CB       -20.6580   28.3610   26.8550 C.3    14  THR14       0.1808
     10  OG1      -21.6390   27.5430   27.5080 O.3    14  THR14      -0.2208
     11  CG2      -19.9380   27.5340   25.8060 C.3    14  THR14       0.0379
     12  N        -18.8880   30.9510   26.8530 N.am   15  ALA15      -0.1963
     13  CA       -17.9370   31.8260   26.1660 C.3    15  ALA15       0.1728
     14  C        -16.7170   32.1110   27.0340 C.2    15  ALA15       0.2616
     15  O        -15.5820   31.9380   26.5920 O.2    15  ALA15      -0.2715
     16  CB       -18.6200   33.1430   25.7670 C.3    15  ALA15       0.0334
     17  N        -16.9660   32.5400   28.2680 N.am   16  GLY16      -0.1955
     18  CA       -15.8890   32.8380   29.1910 C.3    16  GLY16       0.1869
     19  C        -14.8990   31.7060   29.3830 C.2    16  GLY16       0.2309
     20  O        -13.6840   31.9180   29.2890 O.2    16  GLY16      -0.2863
     21  N        -31.1350   23.6130   28.0490 N.3    46  VAL46      -0.1231
     22  CA       -31.9870   23.4260   26.8790 C.3    46  VAL46       0.1692
     23  C        -31.3040   22.8350   25.6470 C.2    46  VAL46       0.2593
     24  O        -31.9180   22.7350   24.5820 O.2    46  VAL46      -0.2718
     25  CB       -32.6670   24.7490   26.4940 C.3    46  VAL46       0.0266
     26  CG1      -33.5630   25.2090   27.6410 C.3    46  VAL46       0.0020
     27  CG2      -31.6060   25.8120   26.1810 C.3    46  VAL46       0.0020
     28  N        -30.0390   22.4480   25.7930 N.am   47  GLY47      -0.1942
     29  CA       -29.3150   21.8340   24.6920 C.3    47  GLY47       0.2014
     30  C        -28.6730   22.7550   23.6690 C.2    47  GLY47       0.2639
     31  O        -29.2020   23.8210   23.3410 O.2    47  GLY47      -0.2714
     32  N        -27.5220   22.3270   23.1580 N.am   48  GLU48      -0.1963
     33  CA       -26.7790   23.0890   22.1600 C.3    48  GLU48       0.1733
     34  C        -26.3860   22.1890   20.9910 C.2    48  GLU48       0.2616
     35  O        -25.9290   21.0600   21.1910 O.2    48  GLU48      -0.2715
     36  CB       -25.5050   23.6720   22.7760 C.3    48  GLU48       0.0429
     37  CG       -25.7290   24.6270   23.9320 C.3    48  GLU48       0.1163
     38  CD       -25.9510   26.0500   23.4710 C.2    48  GLU48       0.3649
     39  OE1      -25.0560   26.5810   22.7760 O.co2  48  GLU48      -0.2457
     40  OE2      -27.0090   26.6360   23.8060 O.co2  48  GLU48      -0.2457
     41  N        -26.5810   22.6900   19.7750 N.am   49  ALA49      -0.1963
     42  CA       -26.2150   21.9620   18.5640 C.3    49  ALA49       0.1728
     43  C        -24.9670   22.6600   18.0140 C.2    49  ALA49       0.2616
     44  O        -24.8190   23.8780   18.1480 O.2    49  ALA49      -0.2715
     45  CB       -27.3440   22.0190   17.5510 C.3    49  ALA49       0.0334
     46  N        -24.0810   21.9000   17.3860 N.am   50  THR50      -0.1951
     47  CA       -22.8400   22.4690   16.8720 C.3    50  THR50       0.1897
     48  C        -22.5100   22.0420   15.4430 C.2    50  THR50       0.2313
     49  O        -23.3210   21.4160   14.7590 O.2    50  THR50      -0.2863
     50  CB       -21.6560   22.0790   17.7930 C.3    50  THR50       0.1794
     51  OG1      -21.6140   20.6540   17.9360 O.3    50  THR50      -0.2208
     52  CG2      -21.8170   22.7010   19.1790 C.3    50  THR50       0.0378
     53  N        -24.8460   22.7710   27.2390 N.3   172  ALA172     -0.1245
     54  CA       -23.7750   23.7590   27.3460 C.3   172  ALA172      0.1562
     55  C        -23.1910   23.8160   28.7510 C.2   172  ALA172      0.2260
     56  O        -21.9800   23.9580   28.9210 O.2   172  ALA172     -0.2867
     57  CB       -24.2870   25.1380   26.9380 C.3   172  ALA172      0.0290
     58  N        -16.9260   38.6220   28.3690 N.3   226  CYS226     -0.1235
     59  CA       -17.7260   37.4220   28.1110 C.3   226  CYS226      0.1677
     60  C        -18.9130   37.4970   29.0600 C.2   226  CYS226      0.2270
     61  O        -19.3830   36.4800   29.5800 O.2   226  CYS226     -0.2867
     62  CB       -16.9110   36.1590   28.4040 C.3   226  CYS226      0.0956
     63  SG       -15.6030   35.8090   27.1940 S.3   226  CYS226     -0.0801
     64  N        -21.9620   38.2380   28.3830 N.3   228  GLY228     -0.1210
     65  CA       -23.2540   37.9770   27.7740 C.3   228  GLY228      0.1956
     66  C        -23.9540   39.2090   27.2290 C.2   228  GLY228      0.2611
     67  O        -23.3330   40.2630   27.0410 O.2   228  GLY228     -0.2717
     68  N        -25.2600   39.0860   26.9980 N.am  229  PHE229     -0.1976
     69  CA       -26.0490   40.1790   26.4380 C.3   229  PHE229      0.1639
     70  C        -25.8800   41.5400   27.1020 C.2   229  PHE229      0.2290
     71  O        -26.0940   42.5630   26.4630 O.2   229  PHE229     -0.2864
     72  CB       -27.5390   39.8010   26.4110 C.3   229  PHE229      0.0560
     73  CG       -27.8680   38.7090   25.4280 C.ar  229  PHE229     -0.0200
     74  CD1      -27.5150   38.8360   24.0830 C.ar  229  PHE229     -0.0042
     75  CD2      -28.5090   37.5420   25.8470 C.ar  229  PHE229     -0.0042
     76  CE1      -27.7920   37.8150   23.1680 C.ar  229  PHE229     -0.0003
     77  CE2      -28.7940   36.5080   24.9360 C.ar  229  PHE229     -0.0003
     78  CZ       -28.4320   36.6480   23.5960 C.ar  229  PHE229     -0.0000
     79  N        -37.4080   33.4610   23.0570 N.3   254  ALA254     -0.1245
     80  CA       -37.4920   32.0130   23.1220 C.3   254  ALA254      0.1562
     81  C        -38.0350   31.5090   24.4590 C.2   254  ALA254      0.2260
     82  O        -37.8220   32.1260   25.5030 O.2   254  ALA254     -0.2867
     83  CB       -36.1240   31.4040   22.8740 C.3   254  ALA254      0.0290
     84  N        -36.6350   24.3200   18.0830 N.3   283  TRP283     -0.1241
     85  CA       -35.5090   23.4200   17.9150 C.3   283  TRP283      0.1605
     86  C        -35.7180   22.1740   18.7620 C.2   283  TRP283      0.2264
     87  O        -36.4170   22.2100   19.7760 O.2   283  TRP283     -0.2867
     88  CB       -34.1920   24.1080   18.3140 C.3   283  TRP283      0.0550
     89  CG       -33.9170   24.2100   19.8010 C.ar  283  TRP283      0.0003
     90  CD1      -33.6290   23.1830   20.6610 C.ar  283  TRP283      0.0946
     91  CD2      -33.8630   25.4110   20.5840 C.ar  283  TRP283      0.0152
     92  NE1      -33.4010   23.6710   21.9280 N.ar  283  TRP283     -0.2442
     93  CE2      -33.5380   25.0350   21.9090 C.ar  283  TRP283      0.0810
     94  CE3      -34.0530   26.7690   20.2960 C.ar  283  TRP283      0.0012
     95  CZ2      -33.4020   25.9690   22.9420 C.ar  283  TRP283      0.0191
     96  CZ3      -33.9160   27.6990   21.3260 C.ar  283  TRP283      0.0001
     97  CH2      -33.5950   27.2920   22.6300 C.ar  283  TRP283      0.0015
     98  N        -33.1220   19.2210   20.1410 N.3   285  ILE285     -0.1245
     99  CA       -31.7460   18.7650   20.2220 C.3   285  ILE285      0.1561
    100  C        -31.6400   17.5120   21.0890 C.2   285  ILE285      0.2260
    101  O        -31.5370   17.5900   22.3170 O.2   285  ILE285     -0.2867
    102  CB       -30.8550   19.9020   20.7840 C.3   285  ILE285      0.0252
    103  CG1      -30.9130   21.0980   19.8200 C.3   285  ILE285      0.0019
    104  CG2      -29.4260   19.4110   21.0010 C.3   285  ILE285      0.0019
    105  CD1      -30.2240   22.3680   20.3170 C.3   285  ILE285      0.0001
    106  N        -36.5950   33.5280   27.4590 N.3   327  ILE327     -0.1245
    107  CA       -35.4550   34.3440   27.0890 C.3   327  ILE327      0.1561
    108  C        -35.7790   35.4520   26.1070 C.2   327  ILE327      0.2260
    109  O        -36.6110   35.3010   25.2120 O.2   327  ILE327     -0.2867
    110  CB       -34.3490   33.4640   26.4670 C.3   327  ILE327      0.0252
    111  CG1      -34.1410   32.2130   27.3350 C.3   327  ILE327      0.0019
    112  CG2      -33.0550   34.2570   26.3420 C.3   327  ILE327      0.0019
    113  CD1      -33.1360   31.2100   26.7750 C.3   327  ILE327      0.0001
    114  N        -33.5700   37.9950   23.7120 N.3   329  PHE329     -0.1241
    115  CA       -32.2260   38.2710   23.2690 C.3   329  PHE329      0.1605
    116  C        -32.1410   39.3960   22.2610 C.2   329  PHE329      0.2264
    117  O        -33.1130   39.7270   21.5880 O.2   329  PHE329     -0.2867
    118  CB       -31.5770   36.9980   22.7240 C.3   329  PHE329      0.0534
    119  CG       -32.4210   36.2440   21.7380 C.ar  329  PHE329     -0.0203
    120  CD1      -32.6800   36.7630   20.4740 C.ar  329  PHE329     -0.0042
    121  CD2      -32.9120   34.9810   22.0570 C.ar  329  PHE329     -0.0042
    122  CE1      -33.4120   36.0280   19.5370 C.ar  329  PHE329     -0.0003
    123  CE2      -33.6430   34.2450   21.1330 C.ar  329  PHE329     -0.0003
    124  CZ       -33.8930   34.7690   19.8690 C.ar  329  PHE329     -0.0000
    125  N        -16.3410   38.6520   23.3530 N.3   345  ILE345     -0.1231
    126  CA       -16.4010   37.2770   22.8520 C.3   345  ILE345      0.1692
    127  C        -17.7090   36.6490   23.3460 C.2   345  ILE345      0.2593
    128  O        -17.9930   36.6780   24.5400 O.2   345  ILE345     -0.2718
    129  CB       -15.2220   36.4250   23.3940 C.3   345  ILE345      0.0266
    130  CG1      -13.8720   37.0250   22.9620 C.3   345  ILE345      0.0019
    131  CG2      -15.3500   34.9860   22.8970 C.3   345  ILE345      0.0020
    132  CD1      -13.6080   36.9640   21.4530 C.3   345  ILE345      0.0001
    133  N        -18.4980   36.0850   22.4320 N.am  346  GLY346     -0.1942
    134  CA       -19.7610   35.4790   22.8320 C.3   346  GLY346      0.2014
    135  C        -20.9420   36.3990   22.5590 C.2   346  GLY346      0.2639
    136  O        -20.8810   37.2440   21.6670 O.2   346  GLY346     -0.2714
    137  N        -22.0160   36.2540   23.3330 N.am  347  THR347     -0.1950
    138  CA       -23.2050   37.0720   23.1240 C.3   347  THR347      0.1897
    139  C        -23.0010   38.5400   23.4770 C.2   347  THR347      0.2313
    140  O        -23.8340   39.3810   23.1420 O.2   347  THR347     -0.2863
    141  CB       -24.4210   36.5000   23.8960 C.3   347  THR347      0.1794
    142  OG1      -24.1000   36.3920   25.2860 O.3   347  THR347     -0.2208
    143  CG2      -24.7770   35.1150   23.3630 C.3   347  THR347      0.0378
    144  N        -25.0840   38.1190   18.1820 N.3   351  PHE351     -0.1241
    145  CA       -25.9940   37.0020   18.3520 C.3   351  PHE351      0.1605
    146  C        -27.0910   36.9280   17.3130 C.2   351  PHE351      0.2264
    147  O        -27.5890   37.9470   16.8330 O.2   351  PHE351     -0.2867
    148  CB       -26.6200   37.0240   19.7480 C.3   351  PHE351      0.0534
    149  CG       -27.6410   35.9400   19.9710 C.ar  351  PHE351     -0.0203
    150  CD1      -28.9510   36.0890   19.5180 C.ar  351  PHE351     -0.0042
    151  CD2      -27.2880   34.7610   20.6120 C.ar  351  PHE351     -0.0042
    152  CE1      -29.8900   35.0830   19.6990 C.ar  351  PHE351     -0.0003
    153  CE2      -28.2190   33.7460   20.7980 C.ar  351  PHE351     -0.0003
    154  CZ       -29.5240   33.9050   20.3410 C.ar  351  PHE351     -0.0000
    155  N        -30.3730   30.4170   17.0380 N.3   354  PRO354     -0.2116
    156  CA       -29.6380   29.1750   16.7750 C.3   354  PRO354      0.1372
    157  C        -30.1300   28.3230   15.6090 C.2   354  PRO354      0.2244
    158  O        -29.9660   27.1020   15.6240 O.2   354  PRO354     -0.2868
    159  CB       -29.7640   28.4320   18.0950 C.3   354  PRO354      0.0268
    160  CG       -31.1680   28.7870   18.5100 C.3   354  PRO354      0.0207
    161  CD       -31.2070   30.2820   18.2490 C.3   354  PRO354      0.0892
    162  N        -26.9610   26.6130   14.2800 N.3   357  SER357     -0.1202
    163  CA       -25.9420   26.2460   15.2670 C.3   357  SER357      0.2020
    164  C        -24.6230   27.0080   15.1190 C.2   357  SER357      0.2619
    165  O        -23.5750   26.3920   14.9230 O.2   357  SER357     -0.2717
    166  CB       -25.6400   24.7470   15.1540 C.3   357  SER357      0.2103
    167  OG       -26.8000   24.0050   14.8200 O.3   357  SER357     -0.2182
    168  N        -24.6670   28.3310   15.2290 N.am  358  THR358     -0.1938
    169  CA       -23.4660   29.1500   15.0800 C.3   358  THR358      0.2028
    170  C        -23.0010   29.8010   16.3780 C.2   358  THR358      0.2643
    171  O        -21.9080   30.3760   16.4300 O.2   358  THR358     -0.2714
    172  CB       -23.6920   30.2670   14.0440 C.3   358  THR358      0.1808
    173  OG1      -24.9040   30.9680   14.3520 O.3   358  THR358     -0.2208
    174  CG2      -23.7960   29.6870   12.6510 C.3   358  THR358      0.0379
    175  N        -23.8220   29.7020   17.4210 N.am  359  GLY359     -0.1939
    176  CA       -23.4890   30.3140   18.7000 C.3   359  GLY359      0.2014
    177  C        -22.1000   30.0080   19.2440 C.2   359  GLY359      0.2639
    178  O        -21.2770   30.9060   19.4460 O.2   359  GLY359     -0.2714
    179  N        -21.8390   28.7330   19.4950 N.am  360  ILE360     -0.1963
    180  CA       -20.5460   28.3250   20.0180 C.3   360  ILE360      0.1727
    181  C        -19.4530   28.5680   18.9830 C.2   360  ILE360      0.2616
    182  O        -18.3330   28.9450   19.3290 O.2   360  ILE360     -0.2715
    183  CB       -20.5780   26.8470   20.4530 C.3   360  ILE360      0.0290
    184  CG1      -21.4530   26.7150   21.7040 C.3   360  ILE360      0.0022
    185  CG2      -19.1710   26.3430   20.7390 C.3   360  ILE360      0.0023
    186  CD1      -21.4980   25.3250   22.2740 C.3   360  ILE360      0.0001
    187  N        -19.7860   28.3650   17.7150 N.am  361  TYR361     -0.1974
    188  CA       -18.8450   28.5940   16.6260 C.3   361  TYR361      0.1639
    189  C        -18.3220   30.0350   16.6570 C.2   361  TYR361      0.2290
    190  O        -17.1250   30.2700   16.4740 O.2   361  TYR361     -0.2864
    191  CB       -19.5270   28.3290   15.2830 C.3   361  TYR361      0.0560
    192  CG       -18.7600   28.8560   14.0970 C.ar  361  TYR361     -0.0198
    193  CD1      -17.5130   28.3360   13.7610 C.ar  361  TYR361     -0.0009
    194  CD2      -19.2730   29.8960   13.3220 C.ar  361  TYR361     -0.0009
    195  CE1      -16.7910   28.8390   12.6780 C.ar  361  TYR361      0.0417
    196  CE2      -18.5610   30.4080   12.2370 C.ar  361  TYR361      0.0417
    197  CZ       -17.3230   29.8730   11.9210 C.ar  361  TYR361      0.1957
    198  OH       -16.6290   30.3550   10.8360 O.3   361  TYR361     -0.2866
    199  N        -17.8560   31.8590   19.0800 N.3   363  VAL363     -0.1245
    200  CA       -16.9180   31.9980   20.1820 C.3   363  VAL363      0.1561
    201  C        -15.5050   31.5420   19.8130 C.2   363  VAL363      0.2260
    202  O        -14.5680   32.3330   19.9080 O.2   363  VAL363     -0.2867
    203  CB       -17.3980   31.2280   21.4400 C.3   363  VAL363      0.0252
    204  CG1      -16.2990   31.2020   22.4970 C.3   363  VAL363      0.0019
    205  CG2      -18.6520   31.9020   22.0240 C.3   363  VAL363      0.0019
@<TRIPOS>BOND
     1   198   197    1
     2   197   196   ar
     3   197   195   ar
     4   196   194   ar
     5   174   172    1
     6   195   193   ar
     7   194   192   ar
     8   193   192   ar
     9   172   173    1
    10   172   169    1
    11   192   191    1
    12   162   163    1
    13    49    48    2
    14   167   166    1
    15   165   164    2
    16   169   168    1
    17   169   170    1
    18   164   168   am
    19   164   163    1
    20   166   163    1
    21   191   188    1
    22    48    47    1
    23   157   158    2
    24   157   156    1
    25   170   171    2
    26   170   175   am
    27   190   189    2
    28   188   189    1
    29   188   187    1
    30   156   155    1
    31   156   159    1
    32   147   146    2
    33    47    46    1
    34    47    50    1
    35   155   161    1
    36   146   145    1
    37    46    43   am
    38   175   176    1
    39    45    42    1
    40   187   181   am
    41    50    51    1
    42    50    52    1
    43    85    84    1
    44    85    88    1
    45    85    86    1
    46    43    44    2
    47    43    42    1
    48   159   160    1
    49   144   145    1
    50   161   160    1
    51    88    89    1
    52   145   148    1
    53    42    41    1
    54   176   177    1
    55    86    87    2
    56   181   182    2
    57   181   180    1
    58   199   200    1
    59   177   178    2
    60   177   179   am
    61   179   180    1
    62   150   152   ar
    63   150   149   ar
    64   122   124   ar
    65   122   120   ar
    66   152   154   ar
    67   148   149    1
    68    41    34   am
    69    89    91   ar
    70    89    90   ar
    71   201   202    2
    72   201   200    1
    73   103   105    1
    74   103   102    1
    75   124   123   ar
    76   149   151   ar
    77   180   183    1
    78    98    99    1
    79   200   203    1
    80    99   102    1
    81    99   100    1
    82    94    91   ar
    83    94    96   ar
    84   154   153   ar
    85   183   185    1
    86   183   184    1
    87   120   119   ar
    88    91    93   ar
    89   151   153   ar
    90    90    92   ar
    91   102   104    1
    92    34    35    2
    93    34    33    1
    94   100   101    2
    95   123   121   ar
    96    96    97   ar
    97   203   205    1
    98   203   204    1
    99   132   130    1
   100   117   116    2
   101   136   135    2
   102   184   186    1
   103   119   121   ar
   104   119   118    1
   105    93    92   ar
   106    93    95   ar
   107    33    36    1
   108    33    32    1
   109   116   115    1
   110   133   134    1
   111   133   127   am
   112   135   134    1
   113   135   137   am
   114    97    95   ar
   115   118   115    1
   116    36    37    1
   117    39    38   ar
   118   126   127    1
   119   126   125    1
   120   126   129    1
   121    83    80    1
   122   131   129    1
   123   130   129    1
   124    79    80    1
   125    80    81    1
   126   138   137    1
   127   138   139    1
   128   138   141    1
   129   140   139    2
   130    32    30   am
   131    76    78   ar
   132    76    74   ar
   133   115   114    1
   134    31    30    2
   135   127   128    2
   136   143   141    1
   137    38    40   ar
   138    38    37    1
   139    78    77   ar
   140    30    29    1
   141   141   142    1
   142    74    73   ar
   143    81    82    2
   144    24    23    2
   145    29    28    1
   146    77    75   ar
   147   109   108    2
   148    73    75   ar
   149    73    72    1
   150    23    28   am
   151    23    22    1
   152    16    13    1
   153    11     9    1
   154   108   107    1
   155    13    12    1
   156    13    14    1
   157    27    25    1
   158   112   110    1
   159    72    69    1
   160    69    68    1
   161    69    70    1
   162    71    70    2
   163   110   107    1
   164   110   111    1
   165    25    22    1
   166    25    26    1
   167    15    14    2
   168   113   111    1
   169    12     7   am
   170     9    10    1
   171     9     6    1
   172    22    21    1
   173    57    54    1
   174    68    66   am
   175     8     7    2
   176    14    17   am
   177    67    66    2
   178   107   106    1
   179    63    62    1
   180     7     6    1
   181    66    65    1
   182    53    54    1
   183    54    55    1
   184    65    64    1
   185     6     5    1
   186    59    58    1
   187    59    62    1
   188    59    60    1
   189    17    18    1
   190    55    56    2
   191     5     3   am
   192    60    61    2
   193    18    19    1
   194    20    19    2
   195     3     4    2
   196     3     2    1
   197     2     1    1
