@<TRIPOS>MOLECULE
tmp/2oapB00.pdb
 187 175 0 0 0
SMALL
GASTEIGER

@<TRIPOS>ATOM
      1  N         -5.6040   31.8750  183.4430 N.3   139  GLU139     -0.1245
      2  CA        -4.7670   32.9870  183.0270 C.3   139  GLU139      0.1567
      3  C         -5.3820   34.3240  183.4310 C.2   139  GLU139      0.2260
      4  O         -4.6750   35.3090  183.6770 O.2   139  GLU139     -0.2867
      5  CB        -4.5670   32.9310  181.5120 C.3   139  GLU139      0.0388
      6  CG        -3.7950   31.7110  181.0380 C.3   139  GLU139      0.1160
      7  CD        -3.4630   31.7690  179.5600 C.2   139  GLU139      0.3649
      8  OE1       -2.6950   30.8960  179.0860 O.co2 139  GLU139     -0.2457
      9  OE2       -3.9740   32.6880  178.8760 O.co2 139  GLU139     -0.2457
     10  N         -1.5660   41.8900  187.1020 N.3   201  ARG201     -0.1245
     11  CA        -2.1660   43.2120  186.9720 C.3   201  ARG201      0.1563
     12  C         -3.6360   43.2600  187.4350 C.2   201  ARG201      0.2260
     13  O         -4.4620   42.4330  187.0440 O.2   201  ARG201     -0.2867
     14  CB        -2.0180   43.6900  185.5280 C.3   201  ARG201      0.0307
     15  CG        -2.2720   45.1650  185.3510 C.3   201  ARG201      0.0489
     16  CD        -1.3550   45.7720  184.3070 C.3   201  ARG201      0.2205
     17  NE        -1.9040   47.0220  183.7870 N.pl3 201  ARG201     -0.0865
     18  CZ        -1.2560   47.8400  182.9640 C.cat 201  ARG201      0.5346
     19  NH1       -0.0240   47.5430  182.5700 N.pl3 201  ARG201      0.1354
     20  NH2       -1.8470   48.9460  182.5270 N.pl3 201  ARG201      0.1354
     21  N         -5.1230   39.5880  185.8860 N.3   220  ARG220     -0.1231
     22  CA        -4.4670   38.9990  184.7370 C.3   220  ARG220      0.1694
     23  C         -3.1960   38.4760  185.3790 C.2   220  ARG220      0.2592
     24  O         -2.2480   39.2370  185.5940 O.2   220  ARG220     -0.2718
     25  CB        -4.1300   40.0630  183.6970 C.3   220  ARG220      0.0321
     26  CG        -3.6870   39.4800  182.3690 C.3   220  ARG220      0.0489
     27  CD        -2.5120   40.2360  181.8130 C.3   220  ARG220      0.2205
     28  NE        -1.2870   40.0130  182.5800 N.pl3 220  ARG220     -0.0865
     29  CZ        -0.3770   40.9600  182.8010 C.cat 220  ARG220      0.5346
     30  NH1       -0.5730   42.1860  182.3160 N.pl3 220  ARG220      0.1354
     31  NH2        0.7330   40.6870  183.4850 N.pl3 220  ARG220      0.1354
     32  N         -3.1860   37.1860  185.7040 N.am  221  LYS221     -0.1966
     33  CA        -2.0460   36.5800  186.3800 C.3   221  LYS221      0.1728
     34  C         -0.7240   36.7740  185.6580 C.2   221  LYS221      0.2616
     35  O         -0.6810   37.1070  184.4770 O.2   221  LYS221     -0.2715
     36  CB        -2.3110   35.0930  186.6310 C.3   221  LYS221      0.0311
     37  CG        -3.6710   34.8210  187.2570 C.3   221  LYS221      0.0038
     38  CD        -3.6420   33.6630  188.2360 C.3   221  LYS221      0.0206
     39  CE        -3.4210   32.3350  187.5610 C.3   221  LYS221      0.1093
     40  NZ        -3.3030   31.2480  188.5640 N.3   221  LYS221     -0.1314
     41  N          0.3580   36.5740  186.3930 N.am  222  PHE222     -0.1960
     42  CA         1.6940   36.7430  185.8580 C.3   222  PHE222      0.1771
     43  C          2.4250   35.4220  185.9760 C.2   222  PHE222      0.2620
     44  O          2.5710   34.9020  187.0830 O.2   222  PHE222     -0.2715
     45  CB         2.4160   37.8290  186.6670 C.3   222  PHE222      0.0574
     46  CG         3.8960   37.9180  186.4050 C.ar  222  PHE222     -0.0200
     47  CD1        4.3810   38.2110  185.1330 C.ar  222  PHE222     -0.0042
     48  CD2        4.8070   37.7210  187.4430 C.ar  222  PHE222     -0.0042
     49  CE1        5.7560   38.3050  184.9000 C.ar  222  PHE222     -0.0003
     50  CE2        6.1810   37.8140  187.2210 C.ar  222  PHE222     -0.0003
     51  CZ         6.6580   38.1050  185.9470 C.ar  222  PHE222     -0.0000
     52  N          2.8740   34.8740  184.8470 N.am  223  THR223     -0.1951
     53  CA         3.5980   33.5990  184.8650 C.3   223  THR223      0.1897
     54  C          4.9430   33.7550  185.5690 C.2   223  THR223      0.2313
     55  O          5.7180   34.6590  185.2460 O.2   223  THR223     -0.2863
     56  CB         3.8380   33.0690  183.4380 C.3   223  THR223      0.1794
     57  OG1        2.5840   32.6940  182.8590 O.3   223  THR223     -0.2208
     58  CG2        4.7690   31.8580  183.4530 C.3   223  THR223      0.0378
     59  N          9.2490   32.6740  179.7040 N.3   227  LEU227     -0.1245
     60  CA         9.2160   31.9500  178.4430 C.3   227  LEU227      0.1561
     61  C         10.5390   32.2420  177.7690 C.2   227  LEU227      0.2260
     62  O         11.0630   33.3410  177.9000 O.2   227  LEU227     -0.2867
     63  CB         8.0840   32.4600  177.5580 C.3   227  LEU227      0.0270
     64  CG         6.6910   31.9080  177.8390 C.3   227  LEU227      0.0019
     65  CD1        5.7260   32.4600  176.7960 C.3   227  LEU227      0.0001
     66  CD2        6.7150   30.3950  177.7770 C.3   227  LEU227      0.0001
     67  N          9.0780   30.3130  172.5900 N.3   232  LEU232     -0.1245
     68  CA         8.4650   31.0910  171.5320 C.3   232  LEU232      0.1561
     69  C          8.4840   30.4250  170.1570 C.2   232  LEU232      0.2260
     70  O          7.5760   30.6460  169.3490 O.2   232  LEU232     -0.2867
     71  CB         9.1070   32.4820  171.4450 C.3   232  LEU232      0.0270
     72  CG         8.9810   33.4390  172.6390 C.3   232  LEU232      0.0019
     73  CD1        9.6300   34.7630  172.2800 C.3   232  LEU232      0.0001
     74  CD2        7.5280   33.6740  173.0000 C.3   232  LEU232      0.0001
     75  N          5.8190   27.6780  170.4470 N.3   235  LYS235     -0.1245
     76  CA         4.4380   28.1620  170.5070 C.3   235  LYS235      0.1561
     77  C          3.9100   28.8070  169.2150 C.2   235  LYS235      0.2260
     78  O          2.7540   29.2430  169.1510 O.2   235  LYS235     -0.2867
     79  CB         4.2770   29.1210  171.6930 C.3   235  LYS235      0.0271
     80  CG         4.2290   28.4110  173.0440 C.3   235  LYS235      0.0035
     81  CD         4.0850   29.3980  174.1910 C.3   235  LYS235      0.0206
     82  CE         3.6380   28.7060  175.4800 C.3   235  LYS235      0.1093
     83  NZ         4.5980   27.6660  175.9560 N.3   235  LYS235     -0.1314
     84  N          4.7030   31.5000  168.0410 N.3   237  THR237     -0.1218
     85  CA         4.5600   32.9190  168.2330 C.3   237  THR237      0.1862
     86  C          5.6060   33.7300  167.4690 C.2   237  THR237      0.2287
     87  O          5.3370   34.8550  167.0640 O.2   237  THR237     -0.2866
     88  CB         4.5720   33.2340  169.7450 C.3   237  THR237      0.1770
     89  OG1        4.4560   34.6430  169.9490 O.3   237  THR237     -0.2211
     90  CG2        5.8370   32.7380  170.3750 C.3   237  THR237      0.0375
     91  N         -2.3860   46.3700  175.5420 N.3   262  THR262     -0.1203
     92  CA        -2.1530   45.9850  176.9240 C.3   262  THR262      0.1994
     93  C         -2.5060   44.5100  177.0350 C.2   262  THR262      0.2618
     94  O         -3.5470   44.0800  176.5590 O.2   262  THR262     -0.2717
     95  CB        -3.0020   46.8250  177.9270 C.3   262  THR262      0.1784
     96  OG1       -3.6580   45.9380  178.8350 O.3   262  THR262     -0.2211
     97  CG2       -4.0410   47.6950  177.2070 C.3   262  THR262      0.0376
     98  N         -1.6050   43.7370  177.6240 N.am  263  ALA263     -0.1965
     99  CA        -1.7970   42.2990  177.8070 C.3   263  ALA263      0.1728
    100  C         -1.5820   41.4400  176.5540 C.2   263  ALA263      0.2617
    101  O         -1.9590   40.2680  176.5340 O.2   263  ALA263     -0.2715
    102  CB        -3.1770   42.0240  178.3990 C.3   263  ALA263      0.0334
    103  N         -0.9500   42.0130  175.5320 N.am  264  SER264     -0.1936
    104  CA        -0.6680   41.3000  174.2880 C.3   264  SER264      0.2055
    105  C          0.5910   40.4230  174.3390 C.2   264  SER264      0.2644
    106  O          0.9750   39.8350  173.3240 O.2   264  SER264     -0.2714
    107  CB        -0.5040   42.2940  173.1460 C.3   264  SER264      0.2130
    108  OG         0.6300   43.1120  173.3690 O.3   264  SER264     -0.2179
    109  N          1.2310   40.3410  175.5030 N.am  265  GLY265     -0.1939
    110  CA         2.4340   39.5430  175.6400 C.3   265  GLY265      0.2014
    111  C          3.7190   40.2900  175.3160 C.2   265  GLY265      0.2639
    112  O          4.7260   39.6870  174.9610 O.2   265  GLY265     -0.2714
    113  N          3.7010   41.6080  175.4560 N.am  266  LYS266     -0.1963
    114  CA         4.8720   42.4230  175.1460 C.3   266  LYS266      0.1728
    115  C          6.0770   42.1400  176.0420 C.2   266  LYS266      0.2617
    116  O          7.1900   41.9300  175.5570 O.2   266  LYS266     -0.2715
    117  CB         4.5220   43.9160  175.2420 C.3   266  LYS266      0.0311
    118  CG         3.4270   44.3800  174.2980 C.3   266  LYS266      0.0038
    119  CD         3.1870   45.8900  174.3660 C.3   266  LYS266      0.0206
    120  CE         2.6790   46.3150  175.7270 C.3   266  LYS266      0.1093
    121  NZ         1.6040   45.3990  176.1910 N.3   266  LYS266     -0.1314
    122  N          5.8570   42.1460  177.3520 N.am  267  THR267     -0.1937
    123  CA         6.9400   41.9210  178.2910 C.3   267  THR267      0.2028
    124  C          7.5310   40.5390  178.1170 C.2   267  THR267      0.2643
    125  O          8.7540   40.3580  178.1270 O.2   267  THR267     -0.2714
    126  CB         6.4590   42.0850  179.7240 C.3   267  THR267      0.1808
    127  OG1        5.7820   43.3390  179.8500 O.3   267  THR267     -0.2208
    128  CG2        7.6280   42.0620  180.6790 C.3   267  THR267      0.0379
    129  N          6.6560   39.5600  177.9440 N.am  268  THR268     -0.1936
    130  CA         7.0930   38.1930  177.7580 C.3   268  THR268      0.2028
    131  C          8.0410   38.0580  176.5790 C.2   268  THR268      0.2642
    132  O          9.0590   37.3850  176.6960 O.2   268  THR268     -0.2714
    133  CB         5.9040   37.2830  177.5690 C.3   268  THR268      0.1808
    134  OG1        5.0780   37.3700  178.7370 O.3   268  THR268     -0.2208
    135  CG2        6.3580   35.8430  177.3440 C.3   268  THR268      0.0379
    136  N          7.7240   38.6790  175.4480 N.am  269  THR269     -0.1950
    137  CA         8.6360   38.6020  174.3080 C.3   269  THR269      0.1897
    138  C          9.9830   39.2850  174.6470 C.2   269  THR269      0.2313
    139  O         11.0560   38.6900  174.4800 O.2   269  THR269     -0.2863
    140  CB         8.0390   39.2790  173.0280 C.3   269  THR269      0.1794
    141  OG1        7.1360   38.3780  172.3780 O.3   269  THR269     -0.2208
    142  CG2        9.1360   39.6520  172.0370 C.3   269  THR269      0.0378
    143  N          9.5190   42.4830  186.8030 N.3   289  GLU289     -0.1245
    144  CA         8.9110   41.4980  185.9090 C.3   289  GLU289      0.1567
    145  C          9.9120   40.6550  185.1560 C.2   289  GLU289      0.2260
    146  O          9.7210   39.4550  184.9870 O.2   289  GLU289     -0.2867
    147  CB         8.0280   42.1790  184.8660 C.3   289  GLU289      0.0388
    148  CG         6.7370   42.7530  185.3760 C.3   289  GLU289      0.1160
    149  CD         5.7600   42.9970  184.2530 C.2   289  GLU289      0.3649
    150  OE1        6.1210   43.7270  183.3100 O.co2 289  GLU289     -0.2457
    151  OE2        4.6360   42.4530  184.3100 O.co2 289  GLU289     -0.2457
    152  N          8.7460   49.4420  179.8670 N.3   327  GLU327     -0.1245
    153  CA         7.6200   50.1310  179.2580 C.3   327  GLU327      0.1567
    154  C          7.7460   51.6190  179.4470 C.2   327  GLU327      0.2260
    155  O          7.6080   52.1200  180.5600 O.2   327  GLU327     -0.2867
    156  CB         6.2900   49.6660  179.8360 C.3   327  GLU327      0.0388
    157  CG         5.1220   50.0580  178.9550 C.3   327  GLU327      0.1160
    158  CD         3.8060   49.4410  179.3890 C.2   327  GLU327      0.3649
    159  OE1        3.7530   48.2040  179.5940 O.co2 327  GLU327     -0.2457
    160  OE2        2.8160   50.1940  179.5130 O.co2 327  GLU327     -0.2457
    161  N          9.2460   48.1420  176.1590 N.3   348  THR348     -0.1218
    162  CA         7.9000   47.7890  175.7270 C.3   348  THR348      0.1862
    163  C          7.1130   49.0760  175.5550 C.2   348  THR348      0.2287
    164  O          7.3760   50.0630  176.2360 O.2   348  THR348     -0.2866
    165  CB         7.2390   46.8850  176.7710 C.3   348  THR348      0.1770
    166  OG1        7.5550   45.5220  176.4710 O.3   348  THR348     -0.2211
    167  CG2        5.7430   47.0730  176.8080 C.3   348  THR348      0.0375
    168  N          3.2960   42.7420  168.8300 N.3   380  GLN380     -0.1245
    169  CA         2.6360   41.5800  169.4070 C.3   380  GLN380      0.1566
    170  C          1.1250   41.6790  169.2920 C.2   380  GLN380      0.2260
    171  O          0.5480   42.7650  169.4030 O.2   380  GLN380     -0.2867
    172  CB         3.0070   41.4280  170.8820 C.3   380  GLN380      0.0367
    173  CG         4.4720   41.1220  171.1570 C.3   380  GLN380      0.0905
    174  CD         4.9620   39.8530  170.4700 C.2   380  GLN380      0.2608
    175  OE1        5.4980   39.8950  169.3490 O.2   380  GLN380     -0.2717
    176  NE2        4.7720   38.7120  171.1360 N.am  380  GLN380     -0.0878
    177  N         -0.7420   34.1630  171.1730 N.3   390  ARG390     -0.1245
    178  CA         0.0770   35.3570  171.2400 C.3   390  ARG390      0.1563
    179  C          0.9580   35.1140  170.0230 C.2   390  ARG390      0.2260
    180  O          1.4830   34.0120  169.8580 O.2   390  ARG390     -0.2867
    181  CB         0.9270   35.3750  172.5040 C.3   390  ARG390      0.0307
    182  CG         0.2480   35.9760  173.7150 C.3   390  ARG390      0.0489
    183  CD        -0.7660   35.0470  174.3400 C.3   390  ARG390      0.2205
    184  NE        -1.2850   35.6110  175.5830 N.pl3 390  ARG390     -0.0865
    185  CZ        -2.1240   34.9820  176.4000 C.cat 390  ARG390      0.5346
    186  NH1       -2.5450   33.7580  176.1100 N.pl3 390  ARG390      0.1354
    187  NH2       -2.5380   35.5780  177.5100 N.pl3 390  ARG390      0.1354
@<TRIPOS>BOND
     1    87    86    2
     2    86    85    1
     3    84    85    1
     4    85    88    1
     5   168   169    1
     6    78    77    2
     7    77    76    1
     8   170   171    2
     9   170   169    1
    10    70    69    2
    11   175   174    2
    12   169   172    1
    13    88    89    1
    14    88    90    1
    15   180   179    2
    16   179   178    1
    17    69    68    1
    18    75    76    1
    19   174   176   am
    20   174   173    1
    21    76    79    1
    22   172   173    1
    23   177   178    1
    24   178   181    1
    25    71    68    1
    26    71    72    1
    27    68    67    1
    28    79    80    1
    29   142   140    1
    30    73    72    1
    31   141   140    1
    32   181   182    1
    33    72    74    1
    34   140   137    1
    35    80    81    1
    36   107   108    1
    37   107   104    1
    38   106   105    2
    39   182   183    1
    40    81    82    1
    41   104   105    1
    42   104   103    1
    43   118   119    1
    44   118   117    1
    45   137   138    1
    46   137   136    1
    47   105   109   am
    48   183   184    1
    49   119   120    1
    50   139   138    2
    51   112   111    2
    52   114   117    1
    53   114   113    1
    54   114   115    1
    55   111   113   am
    56   111   110    1
    57   136   131   am
    58    82    83    1
    59   109   110    1
    60   103   100   am
    61    91    92    1
    62   163   162    1
    63   163   164    2
    64   116   115    2
    65   184   185    2
    66   162   161    1
    67   162   165    1
    68   120   121    1
    69   115   122   am
    70   186   185    1
    71   185   187    1
    72   166   165    1
    73   101   100    2
    74   100    99    1
    75    94    93    2
    76   131   132    2
    77   131   130    1
    78   165   167    1
    79    65    64    1
    80    92    93    1
    81    92    95    1
    82    93    98   am
    83    97    95    1
    84   135   133    1
    85   122   123    1
    86    63    64    1
    87    63    60    1
    88   133   130    1
    89   133   134    1
    90    98    99    1
    91   130   129    1
    92    61    62    2
    93    61    60    1
    94    66    64    1
    95    99   102    1
    96    95    96    1
    97   129   124   am
    98   124   125    2
    99   124   123    1
   100   123   126    1
   101    60    59    1
   102     9     7   ar
   103   157   158    1
   104   157   156    1
   105     8     7   ar
   106   153   154    1
   107   153   156    1
   108   153   152    1
   109   158   160   ar
   110   158   159   ar
   111   154   155    2
   112     7     6    1
   113   126   127    1
   114   126   128    1
   115     6     5    1
   116     5     2    1
   117    27    26    1
   118    27    28    1
   119    30    29    1
   120    26    25    1
   121    20    18    1
   122    19    18    1
   123    28    29    2
   124    29    31    1
   125    57    56    1
   126    18    17    2
   127     2     3    1
   128     2     1    1
   129   150   149   ar
   130     3     4    2
   131    56    58    1
   132    56    53    1
   133    25    22    1
   134    17    16    1
   135   149   151   ar
   136   149   148    1
   137    16    15    1
   138    35    34    2
   139    22    23    1
   140    22    21    1
   141    52    53    1
   142    52    43   am
   143    53    54    1
   144   147   148    1
   145   147   144    1
   146    49    47   ar
   147    49    51   ar
   148   146   145    2
   149    47    46   ar
   150   145   144    1
   151    55    54    2
   152    15    14    1
   153    23    24    2
   154    23    32   am
   155    14    11    1
   156    34    33    1
   157    34    41   am
   158    32    33    1
   159    42    43    1
   160    42    41    1
   161    42    45    1
   162   144   143    1
   163    51    50   ar
   164    43    44    2
   165    33    36    1
   166    46    45    1
   167    46    48   ar
   168    36    37    1
   169    11    10    1
   170    11    12    1
   171    13    12    2
   172    50    48   ar
   173    37    38    1
   174    39    38    1
   175    39    40    1
