@<TRIPOS>MOLECULE
tmp/2oatB01.pdb
 134 130 0 0 0
SMALL
GASTEIGER

@<TRIPOS>ATOM
      1  N         57.7720   22.5580   17.7760 N.3    20  TYR20      -0.1241
      2  CA        58.1840   21.7020   16.6980 C.3    20  TYR20       0.1605
      3  C         58.5720   20.3060   17.2130 C.2    20  TYR20       0.2264
      4  O         59.0560   20.1690   18.3350 O.2    20  TYR20      -0.2867
      5  CB        59.4250   22.2480   15.9320 C.3    20  TYR20       0.0534
      6  CG        59.1200   23.2690   14.8650 C.ar   20  TYR20      -0.0201
      7  CD1       59.0400   24.6350   15.1550 C.ar   20  TYR20      -0.0009
      8  CD2       58.9220   22.8890   13.5390 C.ar   20  TYR20      -0.0009
      9  CE1       58.7420   25.5670   14.1820 C.ar   20  TYR20       0.0417
     10  CE2       58.6190   23.8140   12.5560 C.ar   20  TYR20       0.0417
     11  CZ        58.5250   25.1530   12.8820 C.ar   20  TYR20       0.1957
     12  OH        58.1960   26.0660   11.9030 O.3    20  TYR20      -0.2866
     13  N         61.4480   23.9180    3.3910 N.3    50  TYR50      -0.1241
     14  CA        60.0970   24.2740    2.9600 C.3    50  TYR50       0.1605
     15  C         60.1260   25.1070    1.6960 C.2    50  TYR50       0.2264
     16  O         59.3450   26.0450    1.5620 O.2    50  TYR50      -0.2867
     17  CB        59.4160   24.9620    4.1730 C.3    50  TYR50       0.0534
     18  CG        59.1850   24.0790    5.3790 C.ar   50  TYR50      -0.0201
     19  CD1       58.2460   23.0570    5.3550 C.ar   50  TYR50      -0.0009
     20  CD2       59.8100   24.3410    6.6020 C.ar   50  TYR50      -0.0009
     21  CE1       58.0430   22.2320    6.4570 C.ar   50  TYR50       0.0417
     22  CE2       59.5500   23.5870    7.7230 C.ar   50  TYR50       0.0417
     23  CZ        58.7130   22.4860    7.6250 C.ar   50  TYR50       0.1957
     24  OH        58.4660   21.7300    8.7420 O.3    50  TYR50      -0.2866
     25  N         57.6840   37.9010    6.0990 N.3   106  THR106     -0.1203
     26  CA        57.4240   36.4560    6.1120 C.3   106  THR106      0.1994
     27  C         56.2130   36.0720    5.2720 C.2   106  THR106      0.2618
     28  O         55.5210   37.0080    4.8050 O.2   106  THR106     -0.2717
     29  CB        57.2070   35.9970    7.5790 C.3   106  THR106      0.1784
     30  OG1       56.0140   36.6750    8.0390 O.3   106  THR106     -0.2211
     31  CG2       58.3950   36.4240    8.4080 C.3   106  THR106      0.0376
     32  N         56.0800   34.8260    4.9590 N.am  107  GLY107     -0.1942
     33  CA        54.9600   34.3280    4.0960 C.3   107  GLY107      0.2014
     34  C         53.6060   34.7790    4.6250 C.2   107  GLY107      0.2638
     35  O         52.7550   35.3420    3.9380 O.2   107  GLY107     -0.2714
     36  N         53.3710   34.5290    5.9350 N.am  108  VAL108     -0.1977
     37  CA        52.1130   34.9270    6.5270 C.3   108  VAL108      0.1596
     38  C         51.8590   36.4000    6.4480 C.2   108  VAL108      0.2287
     39  O         50.6910   36.8420    6.2670 O.2   108  VAL108     -0.2864
     40  CB        51.9560   34.3390    7.9500 C.3   108  VAL108      0.0276
     41  CG1       52.7550   35.1160    8.9700 C.3   108  VAL108      0.0022
     42  CG2       50.4720   34.2960    8.2920 C.3   108  VAL108      0.0022
     43  N         47.0640   26.3920    3.7810 N.3   142  PHE142     -0.1227
     44  CA        48.0310   26.7320    4.8330 C.3   142  PHE142      0.1736
     45  C         48.7140   28.0250    4.3940 C.2   142  PHE142      0.2595
     46  O         49.3450   28.0330    3.3350 O.2   142  PHE142     -0.2718
     47  CB        49.0990   25.6620    5.0980 C.3   142  PHE142      0.0547
     48  CG        49.9880   26.0540    6.2770 C.ar  142  PHE142     -0.0202
     49  CD1       50.9740   27.0000    6.1390 C.ar  142  PHE142     -0.0042
     50  CD2       49.6720   25.5920    7.5430 C.ar  142  PHE142     -0.0042
     51  CE1       51.7390   27.3940    7.2450 C.ar  142  PHE142     -0.0003
     52  CE2       50.4100   25.9880    8.6480 C.ar  142  PHE142     -0.0003
     53  CZ        51.4590   26.8730    8.4860 C.ar  142  PHE142     -0.0000
     54  N         48.4450   29.1290    5.1000 N.am  143  TRP143     -0.1962
     55  CA        49.1240   30.3570    4.7390 C.3   143  TRP143      0.1771
     56  C         49.8060   30.9770    5.9710 C.2   143  TRP143      0.2620
     57  O         50.2550   32.1040    5.8630 O.2   143  TRP143     -0.2715
     58  CB        48.2950   31.3780    3.9960 C.3   143  TRP143      0.0590
     59  CG        47.0090   31.8420    4.6050 C.ar  143  TRP143      0.0006
     60  CD1       45.8250   31.1490    4.6460 C.ar  143  TRP143      0.0946
     61  CD2       46.7480   33.1060    5.2390 C.ar  143  TRP143      0.0152
     62  NE1       44.8650   31.8940    5.2760 N.ar  143  TRP143     -0.2442
     63  CE2       45.3970   33.0960    5.6510 C.ar  143  TRP143      0.0810
     64  CE3       47.5370   34.2150    5.5410 C.ar  143  TRP143      0.0012
     65  CZ2       44.8110   34.1690    6.3090 C.ar  143  TRP143      0.0191
     66  CZ3       46.9440   35.3090    6.1790 C.ar  143  TRP143      0.0001
     67  CH2       45.6000   35.2770    6.5420 C.ar  143  TRP143      0.0015
     68  N         50.0330   30.1340    7.0020 N.am  144  GLY144     -0.1940
     69  CA        50.8310   30.7090    8.1140 C.3   144  GLY144      0.2014
     70  C         50.1790   30.4490    9.4730 C.2   144  GLY144      0.2638
     71  O         49.2610   29.6530    9.6040 O.2   144  GLY144     -0.2714
     72  N         50.7130   31.1890   10.4640 N.am  145  ARG145     -0.1977
     73  CA        50.3780   30.8420   11.8500 C.3   145  ARG145      0.1597
     74  C         49.8040   31.9790   12.6370 C.2   145  ARG145      0.2287
     75  O         49.6440   31.8100   13.8620 O.2   145  ARG145     -0.2864
     76  CB        51.6650   30.2990   12.5530 C.3   145  ARG145      0.0334
     77  CG        52.1780   29.0250   11.8600 C.3   145  ARG145      0.0492
     78  CD        51.3660   27.8190   12.2940 C.3   145  ARG145      0.2205
     79  NE        52.0590   26.5600   12.0210 N.pl3 145  ARG145     -0.0865
     80  CZ        51.6530   25.3690   12.4230 C.cat 145  ARG145      0.5346
     81  NH1       50.5200   25.2080   13.1060 N.pl3 145  ARG145      0.1354
     82  NH2       52.3610   24.2890   12.0770 N.pl3 145  ARG145      0.1354
     83  N         46.2300   28.1640   -3.1300 N.3   195  GLU195     -0.1245
     84  CA        47.5760   27.7510   -3.5420 C.3   195  GLU195      0.1567
     85  C         47.4190   26.9290   -4.8250 C.2   195  GLU195      0.2260
     86  O         46.5920   26.0130   -4.8550 O.2   195  GLU195     -0.2867
     87  CB        48.1660   26.7970   -2.4770 C.3   195  GLU195      0.0388
     88  CG        48.4660   27.4750   -1.1140 C.3   195  GLU195      0.1160
     89  CD        48.4020   26.3840   -0.0420 C.2   195  GLU195      0.3649
     90  OE1       49.3830   25.6020    0.0420 O.co2 195  GLU195     -0.2457
     91  OE2       47.3880   26.2870    0.6660 O.co2 195  GLU195     -0.2457
     92  N         51.5060   22.1860    2.4700 N.3   200  GLU200     -0.1245
     93  CA        51.3190   21.5470    3.7650 C.3   200  GLU200      0.1567
     94  C         50.2010   20.5360    3.7830 C.2   200  GLU200      0.2260
     95  O         50.2450   19.5500    4.5320 O.2   200  GLU200     -0.2867
     96  CB        51.1460   22.6390    4.8430 C.3   200  GLU200      0.0388
     97  CG        52.3540   23.5540    4.9790 C.3   200  GLU200      0.1160
     98  CD        53.6780   22.8240    4.7510 C.2   200  GLU200      0.3649
     99  OE1       53.9750   21.8980    5.5500 O.co2 200  GLU200     -0.2457
    100  OE2       54.3810   23.1730    3.7910 O.co2 200  GLU200     -0.2457
    101  N         48.4300   32.0600   -3.7560 N.3   228  ASP228     -0.1239
    102  CA        49.5640   32.0310   -2.7740 C.3   228  ASP228      0.1674
    103  C         50.6720   31.1920   -3.4040 C.2   228  ASP228      0.2266
    104  O         50.5370   29.9720   -3.4540 O.2   228  ASP228     -0.2867
    105  CB        49.0670   31.3150   -1.4960 C.3   228  ASP228      0.1410
    106  CG        50.2000   31.2700   -0.4620 C.2   228  ASP228      0.3668
    107  OD1       51.3330   31.6080   -0.8760 O.co2 228  ASP228     -0.2456
    108  OD2       49.9440   30.9690    0.7400 O.co2 228  ASP228     -0.2456
    109  N         53.8490   31.2700   -2.3980 N.3   230  ILE230     -0.1231
    110  CA        54.9540   31.3640   -1.4260 C.3   230  ILE230      0.1693
    111  C         55.7950   30.1070   -1.4370 C.2   230  ILE230      0.2594
    112  O         57.0440   30.1750   -1.2920 O.2   230  ILE230     -0.2718
    113  CB        54.3930   31.7260   -0.0240 C.3   230  ILE230      0.0266
    114  CG1       53.9370   33.2000   -0.0100 C.3   230  ILE230      0.0019
    115  CG2       55.4250   31.5300    1.0820 C.3   230  ILE230      0.0020
    116  CD1       53.0150   33.5080    1.1900 C.3   230  ILE230      0.0001
    117  N         55.1810   28.9650   -1.6400 N.am  231  GLN231     -0.1934
    118  CA        55.8820   27.6770   -1.7090 C.3   231  GLN231      0.1817
    119  C         55.9630   27.1780   -3.1520 C.2   231  GLN231      0.2332
    120  O         56.9870   26.6180   -3.5400 O.2   231  GLN231     -0.2860
    121  CB        55.1930   26.6400   -0.8320 C.2   231  GLN231      0.0077
    122  CG        55.9370   25.3340   -0.6650 C.2   231  GLN231      0.0587
    123  CD        55.3490   24.3330    0.2960 C.2   231  GLN231      0.2841
    124  OE1       55.5210   23.1230    0.0500 O.2   231  GLN231     -0.2667
    125  NE2       54.5790   24.6930    1.3360 N.am  231  GLN231     -0.0837
    126  N         59.5590   32.7530    0.9450 N.3   257  LYS257     -0.1245
    127  CA        60.5260   31.6660    0.9700 C.3   257  LYS257      0.1561
    128  C         61.7190   31.8370    0.0850 C.2   257  LYS257      0.2260
    129  O         62.6710   32.5430    0.5070 O.2   257  LYS257     -0.2867
    130  CB        59.7610   30.3540    0.7380 C.3   257  LYS257      0.0271
    131  CG        58.9250   29.9610    1.9820 C.3   257  LYS257      0.0035
    132  CD        57.9540   28.8420    1.5680 C.3   257  LYS257      0.0206
    133  CE        57.0600   28.4890    2.7710 C.3   257  LYS257      0.1093
    134  NZ        57.7860   27.5130    3.6350 N.3   257  LYS257     -0.1314
@<TRIPOS>BOND
     1    86    85    2
     2    85    84    1
     3   101   102    1
     4    84    83    1
     5    84    87    1
     6   120   119    2
     7   104   103    2
     8   103   102    1
     9   119   118    1
    10   102   105    1
    11    87    88    1
    12   109   110    1
    13   118   117    1
    14   118   121    1
    15   117   111   am
    16   105   106    1
    17   111   110    1
    18   111   112    2
    19   110   113    1
    20    88    89    1
    21   107   106   ar
    22   121   122    2
    23   122   123    1
    24   106   108   ar
    25    89    90   ar
    26    89    91   ar
    27   113   114    1
    28   113   115    1
    29   114   116    1
    30   124   123    2
    31   128   129    2
    32   128   127    1
    33   123   125   am
    34   130   127    1
    35   130   131    1
    36   126   127    1
    37    16    15    2
    38   132   131    1
    39   132   133    1
    40    15    14    1
    41    92    93    1
    42   133   134    1
    43    14    13    1
    44    14    17    1
    45    46    45    2
    46    93    94    1
    47    93    96    1
    48    43    44    1
    49    94    95    2
    50   100    98   ar
    51    35    34    2
    52    58    59    1
    53    58    55    1
    54    33    34    1
    55    33    32    1
    56    17    18    1
    57    45    44    1
    58    45    54   am
    59    59    60   ar
    60    59    61   ar
    61    34    36   am
    62    60    62   ar
    63    55    54    1
    64    55    56    1
    65    98    97    1
    66    98    99   ar
    67    28    27    2
    68    44    47    1
    69    96    97    1
    70    32    27   am
    71    47    48    1
    72    61    64   ar
    73    61    63   ar
    74    27    26    1
    75    62    63   ar
    76    19    18   ar
    77    19    21   ar
    78    18    20   ar
    79    64    66   ar
    80    63    65   ar
    81    57    56    2
    82    36    37    1
    83    56    68   am
    84    25    26    1
    85    26    29    1
    86    49    48   ar
    87    49    51   ar
    88    66    67   ar
    89    39    38    2
    90    48    50   ar
    91    65    67   ar
    92    38    37    1
    93    21    23   ar
    94    37    40    1
    95    20    22   ar
    96    68    69    1
    97    51    53   ar
    98    50    52   ar
    99    29    30    1
   100    29    31    1
   101    23    22   ar
   102    23    24    1
   103    40    42    1
   104    40    41    1
   105    69    70    1
   106    53    52   ar
   107    70    71    2
   108    70    72   am
   109    72    73    1
   110    73    76    1
   111    73    74    1
   112    77    78    1
   113    77    76    1
   114    12    11    1
   115    79    78    1
   116    79    80    2
   117    82    80    1
   118    80    81    1
   119    10    11   ar
   120    10     8   ar
   121    74    75    2
   122    11     9   ar
   123     8     6   ar
   124     9     7   ar
   125     6     7   ar
   126     6     5    1
   127     5     2    1
   128     2     3    1
   129     2     1    1
   130     3     4    2
