@<TRIPOS>MOLECULE
tmp/2oatB00.pdb
 77 74 0 0 0
SMALL
GASTEIGER

@<TRIPOS>ATOM
      1  N         64.3810   51.8710    8.0550 N.3    77  SER77      -0.1202
      2  CA        62.9580   51.8710    8.3770 C.3    77  SER77       0.2020
      3  C         62.2650   52.6310    7.2400 C.2    77  SER77       0.2618
      4  O         62.9290   53.2710    6.4120 O.2    77  SER77      -0.2717
      5  CB        62.6210   52.3890    9.7490 C.3    77  SER77       0.2103
      6  OG        62.6290   53.7910    9.9270 O.3    77  SER77      -0.2182
      7  N         60.9470   52.5260    7.1610 N.am   78  ARG78      -0.1979
      8  CA        60.1600   53.1630    6.1310 C.3    78  ARG78       0.1597
      9  C         59.8610   54.6190    6.4020 C.2    78  ARG78       0.2287
     10  O         59.1830   55.2810    5.6180 O.2    78  ARG78      -0.2864
     11  CB        58.8490   52.3560    5.9750 C.3    78  ARG78       0.0334
     12  CG        59.1450   50.9870    5.3420 C.3    78  ARG78       0.0492
     13  CD        60.0400   51.1830    4.0950 C.3    78  ARG78       0.2205
     14  NE        59.2860   51.8390    3.0430 N.pl3  78  ARG78      -0.0865
     15  CZ        58.3340   51.2160    2.3320 C.cat  78  ARG78       0.5346
     16  NH1       58.1040   49.9350    2.5950 N.pl3  78  ARG78       0.1354
     17  NH2       57.6490   51.8710    1.4180 N.pl3  78  ARG78       0.1354
     18  N         58.0330   40.7440    5.1160 N.3   105  ASN105     -0.1240
     19  CA        59.0990   39.8420    5.4980 C.3   105  ASN105      0.1653
     20  C         58.7540   38.3730    5.4400 C.2   105  ASN105      0.2266
     21  O         59.4460   37.6000    4.7400 O.2   105  ASN105     -0.2867
     22  CB        59.6110   40.2500    6.9160 C.3   105  ASN105      0.1155
     23  CG        59.7080   41.7380    7.0680 C.2   105  ASN105      0.2627
     24  OD1       60.6670   42.3960    6.5910 O.2   105  ASN105     -0.2716
     25  ND2       58.6880   42.4030    7.6370 N.am  105  ASN105     -0.0877
     26  N         52.8730   37.2650    6.5280 N.3   109  GLU109     -0.1245
     27  CA        52.6970   38.6940    6.4010 C.3   109  GLU109      0.1567
     28  C         52.2110   39.0840    4.9940 C.2   109  GLU109      0.2260
     29  O         51.4450   40.0450    4.8460 O.2   109  GLU109     -0.2867
     30  CB        53.9840   39.4650    6.6960 C.3   109  GLU109      0.0388
     31  CG        54.3050   39.4790    8.2000 C.3   109  GLU109      0.1160
     32  CD        55.5470   40.3060    8.4870 C.2   109  GLU109      0.3649
     33  OE1       56.4340   40.3700    7.6050 O.co2 109  GLU109     -0.2457
     34  OE2       55.6510   40.8410    9.6150 O.co2 109  GLU109     -0.2457
     35  N         50.3390   55.2880    5.5010 N.3   282  GLY282     -0.1225
     36  CA        50.0890   55.1590    6.9280 C.3   282  GLY282      0.1811
     37  C         49.1030   54.0590    7.2710 C.2   282  GLY282      0.2280
     38  O         48.8910   53.8030    8.4740 O.2   282  GLY282     -0.2866
     39  N         49.2170   50.7770    6.3250 N.3   284  HIS284     -0.1226
     40  CA        49.7580   49.4260    6.3790 C.3   284  HIS284      0.1752
     41  C         51.2790   49.4890    6.3750 C.2   284  HIS284      0.2597
     42  O         51.8210   50.4490    5.8010 O.2   284  HIS284     -0.2718
     43  CB        49.3120   48.5900    5.1560 C.3   284  HIS284      0.0759
     44  CG        49.6840   47.1460    5.3790 C.ar  284  HIS284      0.0818
     45  ND1       50.5650   46.4340    4.5840 N.ar  284  HIS284     -0.2268
     46  CD2       49.3230   46.3150    6.3840 C.ar  284  HIS284      0.1154
     47  CE1       50.6850   45.1980    5.0480 C.ar  284  HIS284      0.1986
     48  NE2       49.9500   45.1320    6.1600 N.ar  284  HIS284     -0.2212
     49  N         51.9340   48.5050    6.9670 N.am  285  GLY285     -0.1942
     50  CA        53.3990   48.5400    6.9070 C.3   285  GLY285      0.2014
     51  C         54.0390   47.4270    7.7360 C.2   285  GLY285      0.2640
     52  O         53.3700   46.4880    8.1410 O.2   285  GLY285     -0.2714
     53  N         55.3300   47.6130    7.9550 N.am  286  SER286     -0.1935
     54  CA        56.1350   46.6400    8.7020 C.3   286  SER286      0.2055
     55  C         57.4890   47.2500    9.0190 C.2   286  SER286      0.2644
     56  O         58.0370   47.9700    8.1670 O.2   286  SER286     -0.2714
     57  CB        56.3630   45.4280    7.7880 C.3   286  SER286      0.2130
     58  OG        57.0490   44.4120    8.4850 O.3   286  SER286     -0.2179
     59  N         58.0670   46.9850   10.1790 N.am  287  THR287     -0.1936
     60  CA        59.3700   47.5930   10.4780 C.3   287  THR287      0.2028
     61  C         60.4140   47.1940    9.4430 C.2   287  THR287      0.2642
     62  O         61.0150   48.0730    8.8190 O.2   287  THR287     -0.2714
     63  CB        59.8840   47.1890   11.8850 C.3   287  THR287      0.1808
     64  OG1       58.9470   47.6810   12.8650 O.3   287  THR287     -0.2208
     65  CG2       61.2480   47.8180   12.1370 C.3   287  THR287      0.0379
     66  N         60.6110   45.9180    9.2200 N.am  288  TYR288     -0.1973
     67  CA        61.6660   45.4410    8.3280 C.3   288  TYR288      0.1639
     68  C         61.2650   45.3640    6.8730 C.2   288  TYR288      0.2290
     69  O         62.1090   45.1610    6.0010 O.2   288  TYR288     -0.2864
     70  CB        62.1310   44.0640    8.8650 C.3   288  TYR288      0.0560
     71  CG        63.1230   44.2040   10.0230 C.ar  288  TYR288     -0.0198
     72  CD1       62.6920   44.3590   11.3340 C.ar  288  TYR288     -0.0009
     73  CD2       64.4860   44.1880    9.7730 C.ar  288  TYR288     -0.0009
     74  CE1       63.6130   44.4770   12.3740 C.ar  288  TYR288      0.0417
     75  CE2       65.4190   44.3320   10.7850 C.ar  288  TYR288      0.0417
     76  CZ        64.9580   44.4570   12.0890 C.ar  288  TYR288      0.1957
     77  OH        65.8960   44.6000   13.0980 O.3   288  TYR288     -0.2866
@<TRIPOS>BOND
     1    17    15    1
     2    15    16    1
     3    15    14    2
     4    14    13    1
     5    13    12    1
     6    45    47   ar
     7    45    44   ar
     8    21    20    2
     9    29    28    2
    10    28    27    1
    11    47    48   ar
    12    18    19    1
    13    43    44    1
    14    43    40    1
    15    12    11    1
    16    44    46   ar
    17    20    19    1
    18    19    22    1
    19    35    36    1
    20    10     9    2
    21    42    41    2
    22    11     8    1
    23    69    68    2
    24     8     9    1
    25     8     7    1
    26    48    46   ar
    27    39    40    1
    28    41    40    1
    29    41    49   am
    30    27    26    1
    31    27    30    1
    32     4     3    2
    33    24    23    2
    34    30    31    1
    35    68    67    1
    36    50    49    1
    37    50    51    1
    38    22    23    1
    39    36    37    1
    40    23    25   am
    41     7     3   am
    42     3     2    1
    43    37    38    2
    44    33    32   ar
    45    51    53   am
    46    51    52    2
    47    57    58    1
    48    57    54    1
    49    53    54    1
    50     1     2    1
    51    56    55    2
    52    31    32    1
    53    67    70    1
    54    67    66    1
    55     2     5    1
    56    32    34   ar
    57    54    55    1
    58    62    61    2
    59    70    71    1
    60    55    59   am
    61    66    61   am
    62    61    60    1
    63     5     6    1
    64    73    71   ar
    65    73    75   ar
    66    71    72   ar
    67    59    60    1
    68    60    63    1
    69    75    76   ar
    70    72    74   ar
    71    63    65    1
    72    63    64    1
    73    76    74   ar
    74    76    77    1
