@<TRIPOS>MOLECULE
tmp/2oaxF00.pdb
 201 188 0 0 0
SMALL
GASTEIGER

@<TRIPOS>ATOM
      1  N          9.0990   26.8080   56.0850 N.3    26  LEU26      -0.1245
      2  CA         8.3840   26.6030   54.8340 C.3    26  LEU26       0.1561
      3  C          9.0730   25.5390   53.9860 C.2    26  LEU26       0.2260
      4  O          8.4160   24.7910   53.2590 O.2    26  LEU26      -0.2867
      5  CB         8.2740   27.9270   54.0660 C.3    26  LEU26       0.0270
      6  CG         6.9150   28.6440   54.0900 C.3    26  LEU26       0.0019
      7  CD1        6.1870   28.3890   55.4010 C.3    26  LEU26       0.0001
      8  CD2        7.1350   30.1320   53.8720 C.3    26  LEU26       0.0001
      9  N          7.9760   22.2930   55.3390 N.3    29  LEU29      -0.1231
     10  CA         6.6270   21.9750   54.8940 C.3    29  LEU29       0.1693
     11  C          6.6540   21.4220   53.4710 C.2    29  LEU29       0.2592
     12  O          5.9080   20.5000   53.1400 O.2    29  LEU29      -0.2718
     13  CB         5.7460   23.2270   54.9540 C.3    29  LEU29       0.0284
     14  CG         5.4340   23.8160   56.3400 C.3    29  LEU29       0.0019
     15  CD1        4.4510   24.9860   56.1940 C.3    29  LEU29       0.0001
     16  CD2        4.8450   22.7360   57.2470 C.3    29  LEU29       0.0001
     17  N          7.5190   21.9920   52.6340 N.am   30  ASN30      -0.1974
     18  CA         7.6490   21.5470   51.2520 C.3    30  ASN30       0.1688
     19  C          8.3150   20.1700   51.1330 C.2    30  ASN30       0.2292
     20  O          7.8960   19.3380   50.3160 O.2    30  ASN30      -0.2864
     21  CB         8.4140   22.5910   50.4340 C.3    30  ASN30       0.1181
     22  CG         7.5390   23.7680   50.0400 C.2    30  ASN30       0.2629
     23  OD1        6.3160   23.7130   50.1680 O.2    30  ASN30      -0.2716
     24  ND2        8.1560   24.8270   49.5390 N.am   30  ASN30      -0.0877
     25  N          8.3280   17.9060   53.4870 N.3    32  LEU32      -0.1231
     26  CA         7.2940   17.0360   53.9980 C.3    32  LEU32       0.1693
     27  C          6.3080   16.7630   52.8610 C.2    32  LEU32       0.2591
     28  O          5.9600   15.6170   52.5930 O.2    32  LEU32      -0.2718
     29  CB         6.5750   17.7100   55.1650 C.3    32  LEU32       0.0284
     30  CG         5.3800   16.9650   55.7630 C.3    32  LEU32       0.0019
     31  CD1        5.8760   15.6960   56.4210 C.3    32  LEU32       0.0001
     32  CD2        4.6450   17.8500   56.7710 C.3    32  LEU32       0.0001
     33  N          5.8730   17.8280   52.1890 N.am   33  ALA33      -0.1980
     34  CA         4.9280   17.7250   51.0850 C.3    33  ALA33       0.1597
     35  C          5.4010   16.7800   49.9850 C.2    33  ALA33       0.2287
     36  O          4.6280   15.9610   49.4990 O.2    33  ALA33      -0.2864
     37  CB         4.6680   19.1030   50.5030 C.3    33  ALA33       0.0319
     38  N          5.0430   13.3090   51.0650 N.3    36  GLN36      -0.1245
     39  CA         3.6720   12.8330   51.1830 C.3    36  GLN36       0.1566
     40  C          3.0940   12.5090   49.8130 C.2    36  GLN36       0.2260
     41  O          2.2080   11.6480   49.6880 O.2    36  GLN36      -0.2867
     42  CB         2.7820   13.8590   51.9020 C.3    36  GLN36       0.0367
     43  CG         3.1020   14.0580   53.3850 C.3    36  GLN36       0.0905
     44  CD         2.0850   14.9440   54.1200 C.2    36  GLN36       0.2608
     45  OE1        1.2990   15.6690   53.5000 O.2    36  GLN36      -0.2717
     46  NE2        2.1160   14.8950   55.4530 N.am   36  GLN36      -0.0878
     47  N         -3.8200   17.5460   44.5330 N.3    66  TRP66      -0.1227
     48  CA        -2.8560   17.2070   45.5780 C.3    66  TRP66       0.1737
     49  C         -3.0210   18.0730   46.8320 C.2    66  TRP66       0.2595
     50  O         -2.8880   17.5790   47.9610 O.2    66  TRP66      -0.2718
     51  CB        -1.4210   17.3790   45.0740 C.3    66  TRP66       0.0564
     52  CG        -1.0910   18.7950   44.7790 C.ar   66  TRP66       0.0003
     53  CD1       -1.5320   19.5350   43.7190 C.ar   66  TRP66       0.0946
     54  CD2       -0.2760   19.6710   45.5680 C.ar   66  TRP66       0.0152
     55  NE1       -1.0420   20.8140   43.7980 N.ar   66  TRP66      -0.2442
     56  CE2       -0.2670   20.9250   44.9240 C.ar   66  TRP66       0.0810
     57  CE3        0.4490   19.5130   46.7590 C.ar   66  TRP66       0.0012
     58  CZ2        0.4410   22.0260   45.4290 C.ar   66  TRP66       0.0191
     59  CZ3        1.1550   20.6060   47.2660 C.ar   66  TRP66       0.0001
     60  CH2        1.1450   21.8490   46.5950 C.ar   66  TRP66       0.0015
     61  N         -3.2940   19.3590   46.6340 N.am   67  MET67      -0.1979
     62  CA        -3.4320   20.2570   47.7770 C.3    67  MET67       0.1605
     63  C         -4.7040   20.0020   48.5660 C.2    67  MET67       0.2287
     64  O         -4.7420   20.2810   49.7550 O.2    67  MET67      -0.2864
     65  CB        -3.3800   21.7240   47.3440 C.3    67  MET67       0.0413
     66  CG        -3.3410   22.7010   48.5010 C.3    67  MET67       0.0598
     67  SD        -1.7210   22.8840   49.2460 S.3    67  MET67      -0.1393
     68  CE        -1.1390   24.2840   48.2880 C.3    67  MET67       0.0692
     69  N         -3.7250   16.5090   50.5840 N.3    70  LEU70      -0.1231
     70  CA        -2.8020   16.7440   51.6740 C.3    70  LEU70       0.1693
     71  C         -3.3540   17.6400   52.7860 C.2    70  LEU70       0.2592
     72  O         -3.0780   17.4060   53.9670 O.2    70  LEU70      -0.2718
     73  CB        -1.5130   17.3280   51.1210 C.3    70  LEU70       0.0284
     74  CG        -0.8010   16.4440   50.0910 C.3    70  LEU70       0.0019
     75  CD1        0.5310   17.0950   49.7190 C.3    70  LEU70       0.0001
     76  CD2       -0.5870   15.0460   50.6650 C.3    70  LEU70       0.0001
     77  N         -4.1320   18.6560   52.4060 N.am   71  SER71      -0.1952
     78  CA        -4.7090   19.5890   53.3680 C.3    71  SER71       0.1924
     79  C         -5.8470   18.9550   54.1590 C.2    71  SER71       0.2314
     80  O         -5.9740   19.1730   55.3630 O.2    71  SER71      -0.2863
     81  CB        -5.2210   20.8590   52.6570 C.3    71  SER71       0.2116
     82  OG        -6.4410   20.6420   51.9580 O.3    71  SER71      -0.2180
     83  N         -4.4420   16.7910   56.6360 N.3    74  LEU74      -0.1245
     84  CA        -3.8100   17.5150   57.7320 C.3    74  LEU74       0.1561
     85  C         -4.8700   17.6750   58.8210 C.2    74  LEU74       0.2260
     86  O         -4.6050   17.4500   59.9990 O.2    74  LEU74      -0.2867
     87  CB        -3.3390   18.8990   57.2930 C.3    74  LEU74       0.0270
     88  CG        -2.9640   19.7970   58.4780 C.3    74  LEU74       0.0019
     89  CD1       -1.6610   19.3090   59.0730 C.3    74  LEU74       0.0001
     90  CD2       -2.8620   21.2680   58.0330 C.3    74  LEU74       0.0001
     91  N         -5.3140   14.2970   60.7490 N.3    77  ARG77      -0.1245
     92  CA        -4.2910   14.0090   61.7460 C.3    77  ARG77       0.1563
     93  C         -4.3960   14.9980   62.9250 C.2    77  ARG77       0.2260
     94  O         -4.1250   14.6340   64.0730 O.2    77  ARG77      -0.2867
     95  CB        -2.8910   14.0720   61.1260 C.3    77  ARG77       0.0307
     96  CG        -2.5420   12.9130   60.2080 C.3    77  ARG77       0.0489
     97  CD        -1.0550   12.9280   59.8790 C.3    77  ARG77       0.2205
     98  NE        -0.6100   14.2330   59.3920 N.pl3  77  ARG77      -0.0865
     99  CZ        -0.7940   14.6780   58.1520 C.cat  77  ARG77       0.5346
    100  NH1       -1.4120   13.9250   57.2520 N.pl3  77  ARG77       0.1354
    101  NH2       -0.3630   15.8840   57.8130 N.pl3  77  ARG77       0.1354
    102  N         -2.2470   21.8430   64.7820 N.3    87  LEU87      -0.1245
    103  CA        -2.2270   21.3240   63.4210 C.3    87  LEU87       0.1561
    104  C         -1.0840   20.3160   63.4110 C.2    87  LEU87       0.2260
    105  O          0.0750   20.6820   63.5980 O.2    87  LEU87      -0.2867
    106  CB        -1.9840   22.4400   62.3920 C.3    87  LEU87       0.0270
    107  CG        -3.1320   23.4140   62.0690 C.3    87  LEU87       0.0019
    108  CD1       -2.6890   24.3720   60.9650 C.3    87  LEU87       0.0001
    109  CD2       -4.3790   22.6430   61.6270 C.3    87  LEU87       0.0001
    110  N          1.1670   18.3550   61.4390 N.3    89  PHE89      -0.1241
    111  CA         1.7840   18.1290   60.1370 C.3    89  PHE89       0.1605
    112  C          2.5010   16.7830   60.1030 C.2    89  PHE89       0.2264
    113  O          2.3840   16.0310   59.1360 O.2    89  PHE89      -0.2867
    114  CB         2.7580   19.2680   59.7990 C.3    89  PHE89       0.0534
    115  CG         2.0720   20.5770   59.4840 C.ar   89  PHE89      -0.0203
    116  CD1        1.9970   21.5930   60.4320 C.ar   89  PHE89      -0.0042
    117  CD2        1.4620   20.7750   58.2510 C.ar   89  PHE89      -0.0042
    118  CE1        1.3200   22.7880   60.1490 C.ar   89  PHE89      -0.0003
    119  CE2        0.7840   21.9660   57.9610 C.ar   89  PHE89      -0.0003
    120  CZ         0.7130   22.9710   58.9100 C.ar   89  PHE89      -0.0000
    121  N          2.5320   32.3800   58.2370 N.3   105  MET105     -0.1245
    122  CA         1.4470   31.7230   57.5330 C.3   105  MET105      0.1570
    123  C          0.1650   31.5250   58.3450 C.2   105  MET105      0.2261
    124  O         -0.5400   30.5270   58.1690 O.2   105  MET105     -0.2867
    125  CB         1.9620   30.3800   57.0180 C.3   105  MET105      0.0387
    126  CG         1.2050   29.7930   55.8520 C.3   105  MET105      0.0595
    127  SD         2.1350   28.4010   55.1750 S.3   105  MET105     -0.1393
    128  CE         1.8020   27.1420   56.3980 C.3   105  MET105      0.0692
    129  N         -3.9390   31.1230   56.9880 N.3   108  LEU108     -0.1231
    130  CA        -3.9180   29.9050   56.1890 C.3   108  LEU108      0.1693
    131  C         -3.9510   28.7020   57.1290 C.2   108  LEU108      0.2592
    132  O         -4.7320   27.7720   56.9300 O.2   108  LEU108     -0.2718
    133  CB        -2.6640   29.8660   55.3040 C.3   108  LEU108      0.0284
    134  CG        -2.6220   30.9220   54.1900 C.3   108  LEU108      0.0019
    135  CD1       -1.3080   30.8270   53.4350 C.3   108  LEU108      0.0001
    136  CD2       -3.7980   30.7140   53.2390 C.3   108  LEU108      0.0001
    137  N         -3.1160   28.7250   58.1630 N.am  109  CYS109     -0.1970
    138  CA        -3.0950   27.6330   59.1300 C.3   109  CYS109      0.1712
    139  C         -4.4140   27.6400   59.9000 C.2   109  CYS109      0.2296
    140  O         -4.8180   26.6380   60.4890 O.2   109  CYS109     -0.2864
    141  CB        -1.9400   27.8090   60.1180 C.3   109  CYS109      0.0983
    142  SG        -0.2940   27.7590   59.3950 S.3   109  CYS109     -0.0798
    143  N         -7.5080   25.7830   57.7680 N.3   112  MET112     -0.1245
    144  CA        -7.5650   24.3250   57.8320 C.3   112  MET112      0.1570
    145  C         -7.9430   23.9160   59.2490 C.2   112  MET112      0.2261
    146  O         -8.6760   22.9470   59.4630 O.2   112  MET112     -0.2867
    147  CB        -6.2120   23.7200   57.4370 C.3   112  MET112      0.0387
    148  CG        -6.3230   22.6170   56.3920 C.3   112  MET112      0.0595
    149  SD        -7.3980   23.0650   54.9880 S.3   112  MET112     -0.1393
    150  CE        -8.5870   21.7310   55.0370 C.3   112  MET112      0.0692
    151  N         -4.6150   28.4390   49.5750 N.3   194  LEU194     -0.1245
    152  CA        -3.3830   27.7000   49.8150 C.3   194  LEU194      0.1561
    153  C         -2.5050   27.6260   48.5570 C.2   194  LEU194      0.2260
    154  O         -1.3070   27.9070   48.6130 O.2   194  LEU194     -0.2867
    155  CB        -3.7120   26.2930   50.3030 C.3   194  LEU194      0.0270
    156  CG        -4.6360   26.2080   51.5180 C.3   194  LEU194      0.0019
    157  CD1       -5.1180   24.7750   51.6780 C.3   194  LEU194      0.0001
    158  CD2       -3.9010   26.6940   52.7700 C.3   194  LEU194      0.0001
    159  N         -0.8870   31.0320   47.7840 N.3   197  PHE197     -0.1227
    160  CA         0.2870   31.3620   48.5870 C.3   197  PHE197      0.1736
    161  C          1.4550   30.5260   48.0920 C.2   197  PHE197      0.2595
    162  O          2.5850   31.0060   48.0200 O.2   197  PHE197     -0.2718
    163  CB         0.0760   31.0690   50.0770 C.3   197  PHE197      0.0547
    164  CG         1.2680   31.4290   50.9350 C.ar  197  PHE197     -0.0202
    165  CD1        1.5880   32.7650   51.1890 C.ar  197  PHE197     -0.0042
    166  CD2        2.0890   30.4390   51.4600 C.ar  197  PHE197     -0.0042
    167  CE1        2.7110   33.1040   51.9540 C.ar  197  PHE197     -0.0003
    168  CE2        3.2110   30.7690   52.2250 C.ar  197  PHE197     -0.0003
    169  CZ         3.5220   32.1040   52.4710 C.ar  197  PHE197     -0.0000
    170  N          1.1760   29.2680   47.7590 N.am  198  CYS198     -0.1970
    171  CA         2.2130   28.3690   47.2680 C.3   198  CYS198      0.1712
    172  C          2.8030   28.9190   45.9780 C.2   198  CYS198      0.2296
    173  O          4.0260   28.9990   45.8240 O.2   198  CYS198     -0.2864
    174  CB         1.6510   26.9670   47.0090 C.3   198  CYS198      0.0983
    175  SG         2.8180   25.8870   46.1260 S.3   198  CYS198     -0.0798
    176  N          4.9800   32.1290   46.6110 N.3   201  THR201     -0.1218
    177  CA         6.2550   31.7880   47.2320 C.3   201  THR201      0.1862
    178  C          7.1870   31.1110   46.2400 C.2   201  THR201      0.2287
    179  O          8.4100   31.2440   46.3260 O.2   201  THR201     -0.2866
    180  CB         6.0560   30.8450   48.4250 C.3   201  THR201      0.1770
    181  OG1        5.1350   31.4350   49.3510 O.3   201  THR201     -0.2211
    182  CG2        7.3850   30.5830   49.1220 C.3   201  THR201      0.0375
    183  N         11.9590   23.8090   47.1240 N.3   212  PHE212     -0.1241
    184  CA        10.8600   22.9400   46.7350 C.3   212  PHE212      0.1605
    185  C         11.3340   21.5850   46.2120 C.2   212  PHE212      0.2264
    186  O         12.3020   21.5040   45.4580 O.2   212  PHE212     -0.2867
    187  CB        10.0240   23.5990   45.6360 C.3   212  PHE212      0.0534
    188  CG         9.3090   24.8540   46.0650 C.ar  212  PHE212     -0.0203
    189  CD1       10.0170   26.0070   46.3890 C.ar  212  PHE212     -0.0042
    190  CD2        7.9160   24.8920   46.1000 C.ar  212  PHE212     -0.0042
    191  CE1        9.3450   27.1750   46.7360 C.ar  212  PHE212     -0.0003
    192  CE2        7.2390   26.0540   46.4450 C.ar  212  PHE212     -0.0003
    193  CZ         7.9490   27.1960   46.7620 C.ar  212  PHE212     -0.0000
    194  N          7.1010   18.6930   43.5650 N.3   216  LEU216     -0.1245
    195  CA         6.3050   19.8820   43.8330 C.3   216  LEU216      0.1561
    196  C          6.6090   20.8750   42.7200 C.2   216  LEU216      0.2260
    197  O          5.7310   21.5930   42.2530 O.2   216  LEU216     -0.2867
    198  CB         6.6730   20.4910   45.1880 C.3   216  LEU216      0.0270
    199  CG         5.5390   20.5920   46.2120 C.3   216  LEU216      0.0019
    200  CD1        4.9080   19.2170   46.4480 C.3   216  LEU216      0.0001
    201  CD2        6.0950   21.1680   47.5040 C.3   216  LEU216      0.0001
@<TRIPOS>BOND
     1   197   196    2
     2   196   195    1
     3   194   195    1
     4    53    55   ar
     5    53    52   ar
     6    55    56   ar
     7   195   198    1
     8    47    48    1
     9    52    51    1
    10    52    54   ar
    11    56    58   ar
    12    56    54   ar
    13    51    48    1
    14   198   199    1
    15    58    60   ar
    16   186   185    2
    17    54    57   ar
    18    48    49    1
    19   187   188    1
    20   187   184    1
    21   173   172    2
    22   172   171    1
    23   188   190   ar
    24   188   189   ar
    25   190   192   ar
    26   175   174    1
    27   185   184    1
    28   199   200    1
    29   199   201    1
    30   178   179    2
    31   178   177    1
    32   189   191   ar
    33   192   193   ar
    34    60    59   ar
    35   176   177    1
    36    61    49   am
    37    61    62    1
    38   184   183    1
    39   191   193   ar
    40    57    59   ar
    41    49    50    2
    42   174   171    1
    43   177   180    1
    44   171   170    1
    45    65    62    1
    46    65    66    1
    47   170   161   am
    48    62    63    1
    49   159   160    1
    50   162   161    2
    51   161   160    1
    52    68    67    1
    53   180   182    1
    54   180   181    1
    55    66    67    1
    56   153   154    2
    57   153   152    1
    58    63    64    2
    59   160   163    1
    60    36    35    2
    61    24    22   am
    62   151   152    1
    63    41    40    2
    64    75    74    1
    65    40    39    1
    66   152   155    1
    67    35    34    1
    68    22    23    2
    69    22    21    1
    70   163   164    1
    71    74    76    1
    72    74    73    1
    73   155   156    1
    74    20    19    2
    75    21    18    1
    76    37    34    1
    77    69    70    1
    78   164   165   ar
    79   164   166   ar
    80    38    39    1
    81    34    33    1
    82    73    70    1
    83    19    18    1
    84    39    42    1
    85   165   167   ar
    86    18    17    1
    87   166   168   ar
    88   156   157    1
    89   156   158    1
    90    70    71    1
    91    42    43    1
    92   167   169   ar
    93    82    81    1
    94    33    27   am
    95   168   169   ar
    96    77    71   am
    97    77    78    1
    98    28    27    2
    99    17    11   am
   100    81    78    1
   101    71    72    2
   102    27    26    1
   103    12    11    2
   104   136   134    1
   105     4     3    2
   106    78    79    1
   107    43    44    1
   108   135   134    1
   109    11    10    1
   110    25    26    1
   111    45    44    2
   112     8     6    1
   113     3     2    1
   114    26    29    1
   115     5     6    1
   116     5     2    1
   117     6     7    1
   118    44    46   am
   119    79    80    2
   120   134   133    1
   121     2     1    1
   122    10    13    1
   123    10     9    1
   124    13    14    1
   125   149   150    1
   126   149   148    1
   127    29    30    1
   128   127   126    1
   129   127   128    1
   130   133   130    1
   131    30    31    1
   132    30    32    1
   133   126   125    1
   134   130   129    1
   135   130   131    1
   136    15    14    1
   137    14    16    1
   138   148   147    1
   139    83    84    1
   140   132   131    2
   141   125   122    1
   142   131   137   am
   143   100    99    1
   144    87    84    1
   145    87    88    1
   146   147   144    1
   147   122   121    1
   148   122   123    1
   149    84    85    1
   150   143   144    1
   151   101    99    1
   152   144   145    1
   153   119   117   ar
   154   119   120   ar
   155    90    88    1
   156    99    98    2
   157   137   138    1
   158   124   123    2
   159   117   115   ar
   160    88    89    1
   161    85    86    2
   162   120   118   ar
   163   138   139    1
   164   138   141    1
   165   113   112    2
   166   145   146    2
   167    98    97    1
   168   142   141    1
   169   115   114    1
   170   115   116   ar
   171   114   111    1
   172    97    96    1
   173   139   140    2
   174   112   111    1
   175   111   110    1
   176   118   116   ar
   177    96    95    1
   178    91    92    1
   179   108   107    1
   180    95    92    1
   181   109   107    1
   182    92    93    1
   183   107   106    1
   184   106   103    1
   185    93    94    2
   186   104   103    1
   187   104   105    2
   188   103   102    1
