@<TRIPOS>MOLECULE
tmp/2oazA00.pdb
 186 177 0 0 0
SMALL
GASTEIGER

@<TRIPOS>ATOM
      1  N         23.7270   31.1280    9.5460 N.3    96  PHE96      -0.1228
      2  CA        23.8730   31.9370   10.7420 C.3    96  PHE96       0.1721
      3  C         25.2930   31.8920   11.3180 C.2    96  PHE96       0.2437
      4  O         26.0910   31.0110   10.9770 O.2    96  PHE96      -0.2733
      5  CB        22.8170   31.5410   11.7970 C.3    96  PHE96       0.0547
      6  CG        22.7770   30.0690   12.1260 C.ar   96  PHE96      -0.0202
      7  CD1       23.7470   29.4930   12.9390 C.ar   96  PHE96      -0.0042
      8  CD2       21.7560   29.2640   11.6340 C.ar   96  PHE96      -0.0042
      9  CE1       23.6960   28.1280   13.2620 C.ar   96  PHE96      -0.0003
     10  CE2       21.6970   27.8980   11.9500 C.ar   96  PHE96      -0.0003
     11  CZ        22.6710   27.3290   12.7660 C.ar   96  PHE96      -0.0000
     12  N         25.6330   32.8690   12.1750 N.am   97  PRO97      -0.2729
     13  CA        26.9520   32.9700   12.8030 C.3    97  PRO97       0.1401
     14  C         27.3090   31.7160   13.6010 C.2    97  PRO97       0.2269
     15  O         26.4260   30.9780   14.0530 O.2    97  PRO97      -0.2865
     16  CB        26.8120   34.2050   13.7010 C.3    97  PRO97       0.0296
     17  CG        25.7610   35.0050   13.0460 C.3    97  PRO97       0.0237
     18  CD        24.7590   33.9560   12.6480 C.3    97  PRO97       0.0939
     19  N         27.9730   29.7900   16.6120 N.3    99  GLY99      -0.1225
     20  CA        27.8000   29.8960   18.0420 C.3    99  GLY99       0.1811
     21  C         28.8980   29.0770   18.6860 C.2    99  GLY99       0.2280
     22  O         29.2020   27.9910   18.2080 O.2    99  GLY99      -0.2866
     23  N         23.7230   29.0390   24.5650 N.3   107  ALA107     -0.1231
     24  CA        23.5970   29.3260   23.1380 C.3   107  ALA107      0.1694
     25  C         23.6920   30.7890   22.7870 C.2   107  ALA107      0.2592
     26  O         23.6350   31.6590   23.6480 O.2   107  ALA107     -0.2718
     27  CB        22.2610   28.7640   22.6090 C.3   107  ALA107      0.0304
     28  N         23.8300   31.0350   21.4940 N.am  108  HIS108     -0.1976
     29  CA        23.8900   32.3710   20.9460 C.3   108  HIS108      0.1656
     30  C         25.0530   33.2590   21.3070 C.2   108  HIS108      0.2291
     31  O         24.9320   34.4860   21.3000 O.2   108  HIS108     -0.2864
     32  CB        22.5880   33.0950   21.2290 C.3   108  HIS108      0.0771
     33  CG        21.4150   32.4570   20.5670 C.ar  108  HIS108      0.0820
     34  ND1       20.1350   32.9570   20.6600 N.ar  108  HIS108     -0.2267
     35  CD2       21.3360   31.3590   19.7820 C.ar  108  HIS108      0.1154
     36  CE1       19.3170   32.1970   19.9560 C.ar  108  HIS108      0.1986
     37  NE2       20.0210   31.2210   19.4120 N.ar  108  HIS108     -0.2212
     38  N         27.6740   25.6520   17.1880 N.3   128  ASP128     -0.1239
     39  CA        26.4020   25.6150   16.4560 C.3   128  ASP128      0.1674
     40  C         26.5170   26.5440   15.2590 C.2   128  ASP128      0.2266
     41  O         26.6090   27.7610   15.4080 O.2   128  ASP128     -0.2867
     42  CB        25.2660   26.0960   17.3720 C.3   128  ASP128      0.1410
     43  CG        23.8690   25.8880   16.7700 C.2   128  ASP128      0.3668
     44  OD1       23.7300   25.6480   15.5570 O.co2 128  ASP128     -0.2456
     45  OD2       22.8940   25.9790   17.5340 O.co2 128  ASP128     -0.2456
     46  N         20.5260   23.4400   10.4440 N.3   139  ASP139     -0.1239
     47  CA        20.8600   23.8820   11.8070 C.3   139  ASP139      0.1674
     48  C         21.2860   22.6120   12.5350 C.2   139  ASP139      0.2266
     49  O         20.4580   21.7650   12.8620 O.2   139  ASP139     -0.2867
     50  CB        19.6340   24.5080   12.4970 C.3   139  ASP139      0.1410
     51  CG        19.9400   25.0500   13.9030 C.2   139  ASP139      0.3668
     52  OD1       21.1260   25.1010   14.3190 O.co2 139  ASP139     -0.2456
     53  OD2       18.9710   25.4410   14.5990 O.co2 139  ASP139     -0.2456
     54  N         13.5020   26.4230   29.2900 N.3   204  ASN204     -0.1225
     55  CA        13.1440   27.5350   28.4160 C.3   204  ASN204      0.1785
     56  C         13.9230   27.5400   27.1020 C.2   204  ASN204      0.2597
     57  O         14.0080   28.5640   26.4310 O.2   204  ASN204     -0.2718
     58  CB        13.3090   28.8750   29.1490 C.3   204  ASN204      0.1169
     59  CG        14.7240   29.1090   29.6430 C.2   204  ASN204      0.2627
     60  OD1       15.4570   28.1680   29.9400 O.2   204  ASN204     -0.2716
     61  ND2       15.1050   30.3750   29.7550 N.am  204  ASN204     -0.0877
     62  N         14.5080   26.3990   26.7410 N.am  205  LEU205     -0.1966
     63  CA        15.2240   26.2930   25.4670 C.3   205  LEU205      0.1728
     64  C         14.5130   25.2170   24.6770 C.2   205  LEU205      0.2616
     65  O         13.8300   24.3770   25.2620 O.2   205  LEU205     -0.2715
     66  CB        16.7000   25.9240   25.6650 C.3   205  LEU205      0.0311
     67  CG        17.6450   27.0990   25.9610 C.3   205  LEU205      0.0022
     68  CD1       19.1020   26.6020   26.0140 C.3   205  LEU205      0.0001
     69  CD2       17.4920   28.1750   24.8710 C.3   205  LEU205      0.0001
     70  N         14.6710   25.2080   23.3610 N.am  206  ASN206     -0.1972
     71  CA        13.9420   24.2110   22.6000 C.3   206  ASN206      0.1688
     72  C         14.2110   24.1540   21.0980 C.2   206  ASN206      0.2292
     73  O         14.7370   25.0970   20.5050 O.2   206  ASN206     -0.2864
     74  CB        12.4590   24.4650   22.8370 C.3   206  ASN206      0.1181
     75  CG        12.1130   25.9290   22.7150 C.2   206  ASN206      0.2629
     76  OD1       12.2950   26.5190   21.6560 O.2   206  ASN206     -0.2716
     77  ND2       11.6280   26.5320   23.8000 N.am  206  ASN206     -0.0877
     78  N         12.9660   23.7140   17.0350 N.3   208  HIS208     -0.1241
     79  CA        12.0450   24.5720   16.3010 C.3   208  HIS208      0.1621
     80  C         11.8510   24.1340   14.8530 C.2   208  HIS208      0.2264
     81  O         12.6780   23.4180   14.2900 O.2   208  HIS208     -0.2867
     82  CB        12.5930   26.0040   16.3420 C.3   208  HIS208      0.0745
     83  CG        14.0400   26.0890   15.9580 C.ar  208  HIS208      0.0817
     84  ND1       14.4560   26.3080   14.6610 N.ar  208  HIS208     -0.2268
     85  CD2       15.1650   25.8600   16.6800 C.ar  208  HIS208      0.1154
     86  CE1       15.7730   26.2040   14.5990 C.ar  208  HIS208      0.1986
     87  NE2       16.2280   25.9310   15.8100 N.ar  208  HIS208     -0.2212
     88  N         15.1590   30.4690   10.0040 N.3   215  ILE215     -0.1231
     89  CA        15.6500   29.5190   10.9910 C.3   215  ILE215      0.1692
     90  C         14.6010   29.0310   12.0050 C.2   215  ILE215      0.2592
     91  O         14.5230   27.8310   12.3010 O.2   215  ILE215     -0.2718
     92  CB        16.8820   30.1080   11.7290 C.3   215  ILE215      0.0266
     93  CG1       17.3670   29.1170   12.7770 C.3   215  ILE215      0.0019
     94  CG2       16.5500   31.4640   12.3300 C.3   215  ILE215      0.0020
     95  CD1       17.7930   27.8070   12.1590 C.3   215  ILE215      0.0001
     96  N         13.8040   29.9540   12.5330 N.am  216  HIS216     -0.1976
     97  CA        12.7560   29.6110   13.4940 C.3   216  HIS216      0.1656
     98  C         11.4170   30.0000   12.8770 C.2   216  HIS216      0.2291
     99  O         10.9190   31.1120   13.0860 O.2   216  HIS216     -0.2864
    100  CB        12.9780   30.3600   14.8100 C.3   216  HIS216      0.0771
    101  CG        12.0730   29.9160   15.9160 C.ar  216  HIS216      0.0820
    102  ND1       12.5040   29.7710   17.2170 N.ar  216  HIS216     -0.2267
    103  CD2       10.7560   29.5900   15.9160 C.ar  216  HIS216      0.1154
    104  CE1       11.4920   29.3740   17.9720 C.ar  216  HIS216      0.1986
    105  NE2       10.4210   29.2580   17.2060 N.ar  216  HIS216     -0.2212
    106  N         16.8400   19.9610   18.8260 N.3   241  GLU241     -0.1245
    107  CA        17.9560   20.2740   19.7110 C.3   241  GLU241      0.1567
    108  C         17.5750   20.1880   21.1770 C.2   241  GLU241      0.2260
    109  O         16.4850   20.5970   21.5690 O.2   241  GLU241     -0.2867
    110  CB        18.5350   21.6650   19.4020 C.3   241  GLU241      0.0388
    111  CG        17.6050   22.8690   19.5640 C.3   241  GLU241      0.1160
    112  CD        18.3110   24.1710   19.1840 C.2   241  GLU241      0.3649
    113  OE1       19.4130   24.4170   19.7310 O.co2 241  GLU241     -0.2457
    114  OE2       17.7820   24.9390   18.3400 O.co2 241  GLU241     -0.2457
    115  N         19.1880   20.5640   25.3660 N.3   243  PHE243     -0.1241
    116  CA        20.2510   21.1480   26.1780 C.3   243  PHE243      0.1605
    117  C         20.2380   20.5730   27.5850 C.2   243  PHE243      0.2264
    118  O         19.2160   20.6190   28.2730 O.2   243  PHE243     -0.2867
    119  CB        20.0920   22.6620   26.2910 C.3   243  PHE243      0.0534
    120  CG        20.2610   23.4000   25.0020 C.ar  243  PHE243     -0.0203
    121  CD1       19.1990   23.5370   24.1120 C.ar  243  PHE243     -0.0042
    122  CD2       21.4750   24.0160   24.7030 C.ar  243  PHE243     -0.0042
    123  CE1       19.3350   24.2870   22.9390 C.ar  243  PHE243     -0.0003
    124  CE2       21.6290   24.7670   23.5340 C.ar  243  PHE243     -0.0003
    125  CZ        20.5540   24.9060   22.6510 C.ar  243  PHE243     -0.0000
    126  N         24.5430   38.3520   18.0790 N.3   259  HIS259     -0.1241
    127  CA        23.6790   37.8470   17.0160 C.3   259  HIS259      0.1621
    128  C         22.5000   38.7850   16.7900 C.2   259  HIS259      0.2264
    129  O         21.9200   39.3060   17.7430 O.2   259  HIS259     -0.2867
    130  CB        23.1280   36.4640   17.3710 C.3   259  HIS259      0.0745
    131  CG        24.1490   35.3690   17.3480 C.ar  259  HIS259      0.0817
    132  ND1       25.1860   35.2950   18.2530 N.ar  259  HIS259     -0.2268
    133  CD2       24.2750   34.2860   16.5460 C.ar  259  HIS259      0.1154
    134  CE1       25.9000   34.2110   18.0140 C.ar  259  HIS259      0.1986
    135  NE2       25.3690   33.5810   16.9830 N.ar  259  HIS259     -0.2212
    136  N         19.0230   39.5540   13.8450 N.3   261  MET261     -0.1245
    137  CA        18.2540   38.9730   12.7550 C.3   261  MET261      0.1570
    138  C         16.9930   39.7690   12.4690 C.2   261  MET261      0.2261
    139  O         16.2090   40.0650   13.3660 O.2   261  MET261     -0.2867
    140  CB        17.8900   37.5150   13.0660 C.3   261  MET261      0.0387
    141  CG        17.2010   36.8050   11.9050 C.3   261  MET261      0.0595
    142  SD        17.0160   35.0150   12.1690 S.3   261  MET261     -0.1393
    143  CE        15.6300   34.9890   13.2870 C.3   261  MET261      0.0692
    144  N         20.0590   35.1960   10.0420 N.3   291  ALA291     -0.1245
    145  CA        20.7240   35.8540   11.1610 C.3   291  ALA291      0.1562
    146  C         22.1650   36.2330   10.7870 C.2   291  ALA291      0.2260
    147  O         22.7320   35.6740    9.8490 O.2   291  ALA291     -0.2867
    148  CB        20.7200   34.9400   12.3710 C.3   291  ALA291      0.0290
    149  N         19.5430   38.8680   19.4780 N.3   321  TYR321     -0.1241
    150  CA        19.4830   37.5610   20.1210 C.3   321  TYR321      0.1605
    151  C         20.7160   37.3980   20.9950 C.2   321  TYR321      0.2264
    152  O         21.7180   36.8260   20.5760 O.2   321  TYR321     -0.2867
    153  CB        19.4110   36.4510   19.0710 C.3   321  TYR321      0.0534
    154  CG        18.1230   36.4710   18.2780 C.ar  321  TYR321     -0.0201
    155  CD1       17.9450   37.3600   17.2160 C.ar  321  TYR321     -0.0009
    156  CD2       17.0560   35.6360   18.6230 C.ar  321  TYR321     -0.0009
    157  CE1       16.7310   37.4210   16.5110 C.ar  321  TYR321      0.0417
    158  CE2       15.8380   35.6910   17.9280 C.ar  321  TYR321      0.0417
    159  CZ        15.6860   36.5850   16.8770 C.ar  321  TYR321      0.1957
    160  OH        14.4850   36.6460   16.2010 O.3   321  TYR321     -0.2866
    161  N         22.3970   33.1240   25.8410 N.3   324  LEU324     -0.1245
    162  CA        21.5060   32.5460   26.8230 C.3   324  LEU324      0.1561
    163  C         22.3200   31.6230   27.7410 C.2   324  LEU324      0.2260
    164  O         22.7730   30.5540   27.3330 O.2   324  LEU324     -0.2867
    165  CB        20.3630   31.7860   26.1300 C.3   324  LEU324      0.0270
    166  CG        19.6170   32.6290   25.0990 C.3   324  LEU324      0.0019
    167  CD1       18.3500   31.9450   24.6570 C.3   324  LEU324      0.0001
    168  CD2       19.2830   33.9990   25.6970 C.3   324  LEU324      0.0001
    169  N         24.9630   20.7080   24.3980 N.3   334  GLN334     -0.1245
    170  CA        23.9280   20.7080   23.3460 C.3   334  GLN334      0.1566
    171  C         24.2640   19.8280   22.1390 C.2   334  GLN334      0.2260
    172  O         25.4300   19.6590   21.7800 O.2   334  GLN334     -0.2867
    173  CB        23.6770   22.1420   22.8440 C.3   334  GLN334      0.0367
    174  CG        22.8930   22.2360   21.5240 C.3   334  GLN334      0.0905
    175  CD        23.1790   23.5340   20.7810 C.2   334  GLN334      0.2608
    176  OE1       24.3240   23.9820   20.7480 O.2   334  GLN334     -0.2717
    177  NE2       22.1530   24.1320   20.1730 N.am  334  GLN334     -0.0878
    178  N         22.3520   19.0610   18.2030 N.3   336  GLU336     -0.1245
    179  CA        21.2550   19.4300   17.3120 C.3   336  GLU336      0.1567
    180  C         21.3780   18.8250   15.9150 C.2   336  GLU336      0.2260
    181  O         22.4820   18.6450   15.3860 O.2   336  GLU336     -0.2867
    182  CB        21.1720   20.9700   17.2220 C.3   336  GLU336      0.0388
    183  CG        20.0930   21.5440   16.2840 C.3   336  GLU336      0.1160
    184  CD        19.9920   23.0810   16.3320 C.2   336  GLU336      0.3649
    185  OE1       21.0530   23.7510   16.3740 O.co2 336  GLU336     -0.2457
    186  OE2       18.8510   23.6170   16.3090 O.co2 336  GLU336     -0.2457
@<TRIPOS>BOND
     1     1     2    1
     2   147   146    2
     3    88    89    1
     4   144   145    1
     5    46    47    1
     6     2     3    1
     7     2     5    1
     8   146   145    1
     9     4     3    2
    10    89    92    1
    11    89    90    1
    12   145   148    1
    13     3    12   am
    14     8    10   ar
    15     8     6   ar
    16    92    94    1
    17    92    93    1
    18     5     6    1
    19    47    50    1
    20    47    48    1
    21   141   142    1
    22   141   140    1
    23    10    11   ar
    24    90    91    2
    25    90    96   am
    26     6     7   ar
    27    95    93    1
    28   142   143    1
    29    12    18    1
    30    12    13    1
    31   138   137    1
    32   138   139    2
    33    50    51    1
    34    96    97    1
    35    48    49    2
    36    18    17    1
    37   137   140    1
    38   137   136    1
    39    11     9   ar
    40    13    14    1
    41    13    16    1
    42    98    99    2
    43    98    97    1
    44     7     9   ar
    45    17    16    1
    46    97   100    1
    47    14    15    2
    48    51    52   ar
    49    51    53   ar
    50    81    80    2
    51    86    84   ar
    52    86    87   ar
    53    84    83   ar
    54   100   101    1
    55    80    79    1
    56    40    41    2
    57    40    39    1
    58   181   180    2
    59    44    43   ar
    60    87    85   ar
    61   180   179    1
    62   101   103   ar
    63   101   102   ar
    64   103   105   ar
    65    83    82    1
    66    83    85   ar
    67   160   159    1
    68   183   184    1
    69   183   182    1
    70    79    82    1
    71    79    78    1
    72   186   184   ar
    73   184   185   ar
    74    39    38    1
    75    39    42    1
    76   157   159   ar
    77   157   155   ar
    78   133   135   ar
    79   133   131   ar
    80    19    20    1
    81    43    42    1
    82    43    45   ar
    83   128   127    1
    84   128   129    2
    85   159   158   ar
    86   135   134   ar
    87   127   130    1
    88   127   126    1
    89   105   104   ar
    90   155   154   ar
    91   102   104   ar
    92   182   179    1
    93   179   178    1
    94   131   130    1
    95   131   132   ar
    96   158   156   ar
    97   134   132   ar
    98    20    21    1
    99    22    21    2
   100   154   156   ar
   101   154   153    1
   102   114   112   ar
   103   106   107    1
   104   153   150    1
   105   112   111    1
   106   112   113   ar
   107   110   111    1
   108   110   107    1
   109    37    35   ar
   110    37    36   ar
   111   149   150    1
   112   107   108    1
   113    35    33   ar
   114    36    34   ar
   115   150   151    1
   116   177   175   am
   117    73    72    2
   118    33    34   ar
   119    33    32    1
   120   152   151    2
   121   176   175    2
   122   175   174    1
   123    29    32    1
   124    29    30    1
   125    29    28    1
   126    72    71    1
   127   108   109    2
   128    31    30    2
   129    28    25   am
   130   174   173    1
   131    76    75    2
   132   172   171    2
   133   171   170    1
   134    71    74    1
   135    71    70    1
   136    27    24    1
   137   125   123   ar
   138   125   124   ar
   139    75    74    1
   140    75    77   am
   141    25    24    1
   142    25    26    2
   143   173   170    1
   144   123   121   ar
   145    24    23    1
   146   170   169    1
   147    70    64   am
   148   124   122   ar
   149   121   120   ar
   150   167   166    1
   151    64    65    2
   152    64    63    1
   153   122   120   ar
   154    69    67    1
   155   120   119    1
   156   166   168    1
   157   166   165    1
   158   115   116    1
   159    63    66    1
   160    63    62    1
   161    66    67    1
   162   161   162    1
   163    67    68    1
   164   165   162    1
   165   116   119    1
   166   116   117    1
   167    57    56    2
   168    62    56   am
   169   162   163    1
   170    56    55    1
   171   164   163    2
   172   117   118    2
   173    55    58    1
   174    55    54    1
   175    58    59    1
   176    59    61   am
   177    59    60    2
