@<TRIPOS>MOLECULE
tmp/2ob0C00.pdb
 227 225 0 0 0
SMALL
GASTEIGER

@<TRIPOS>ATOM
      1  N         57.2460  377.9970  -83.2740 N.3    23  ILE23      -0.1231
      2  CA        55.8420  378.3880  -83.3450 C.3    23  ILE23       0.1692
      3  C         55.2760  378.8520  -81.9940 C.2    23  ILE23       0.2592
      4  O         54.4950  379.7900  -81.9470 O.2    23  ILE23      -0.2718
      5  CB        54.9580  377.2540  -83.9350 C.3    23  ILE23       0.0266
      6  CG1       55.2890  376.9890  -85.4110 C.3    23  ILE23       0.0019
      7  CG2       53.4890  377.6040  -83.8430 C.3    23  ILE23       0.0020
      8  CD1       54.9480  375.5540  -85.8730 C.3    23  ILE23       0.0001
      9  N         55.6980  378.2180  -80.9010 N.am   24  PHE24      -0.1963
     10  CA        55.0960  378.4630  -79.5930 C.3    24  PHE24       0.1756
     11  C         56.0880  379.1720  -78.6620 C.2    24  PHE24       0.2461
     12  O         57.2820  378.8780  -78.7060 O.2    24  PHE24      -0.2730
     13  CB        54.5890  377.1470  -78.9740 C.3    24  PHE24       0.0574
     14  CG        53.5820  376.4440  -79.8390 C.ar   24  PHE24      -0.0200
     15  CD1       52.2610  376.8690  -79.8780 C.ar   24  PHE24      -0.0042
     16  CD2       53.9800  375.4060  -80.6640 C.ar   24  PHE24      -0.0042
     17  CE1       51.3380  376.2340  -80.7230 C.ar   24  PHE24      -0.0003
     18  CE2       53.0980  374.7740  -81.5040 C.ar   24  PHE24      -0.0003
     19  CZ        51.7680  375.1920  -81.5470 C.ar   24  PHE24      -0.0000
     20  N         55.6020  380.1150  -77.8320 N.am   25  PRO25      -0.2716
     21  CA        56.4910  380.9420  -76.9940 C.3    25  PRO25       0.1536
     22  C         56.9910  380.2720  -75.7240 C.2    25  PRO25       0.2598
     23  O         57.6920  380.9120  -74.9420 O.2    25  PRO25      -0.2715
     24  CB        55.5960  382.1260  -76.6170 C.3    25  PRO25       0.0310
     25  CG        54.2270  381.5160  -76.5440 C.3    25  PRO25       0.0237
     26  CD        54.1870  380.5050  -77.6670 C.3    25  PRO25       0.0939
     27  N         56.6240  379.0130  -75.5080 N.am   26  VAL26      -0.1978
     28  CA        57.1310  378.2280  -74.3750 C.3    26  VAL26       0.1596
     29  C         57.8440  376.9430  -74.8370 C.2    26  VAL26       0.2287
     30  O         57.4280  376.3070  -75.8060 O.2    26  VAL26      -0.2864
     31  CB        56.0190  377.8510  -73.3690 C.3    26  VAL26       0.0276
     32  CG1       55.4730  379.0930  -72.6480 C.3    26  VAL26       0.0022
     33  CG2       54.9140  377.0720  -74.0470 C.3    26  VAL26       0.0022
     34  N         49.3010  371.7070  -78.1720 N.3    72  THR72      -0.1203
     35  CA        49.9150  372.5540  -79.2000 C.3    72  THR72       0.1994
     36  C         49.2050  372.2250  -80.5100 C.2    72  THR72       0.2618
     37  O         49.0170  371.0430  -80.8590 O.2    72  THR72      -0.2717
     38  CB        51.4180  372.2430  -79.4110 C.3    72  THR72       0.1784
     39  OG1       51.6110  370.8350  -79.6270 O.3    72  THR72      -0.2211
     40  CG2       52.2920  372.7010  -78.2210 C.3    72  THR72       0.0376
     41  N         48.7650  373.2620  -81.1970 N.am   73  LEU73      -0.1965
     42  CA        48.2860  373.1340  -82.5730 C.3    73  LEU73       0.1728
     43  C         48.6960  374.4010  -83.2820 C.2    73  LEU73       0.2617
     44  O         48.2890  375.5070  -82.8840 O.2    73  LEU73      -0.2715
     45  CB        46.7680  373.0240  -82.6010 C.3    73  LEU73       0.0311
     46  CG        46.0290  372.7420  -83.9270 C.3    73  LEU73       0.0022
     47  CD1       44.6840  372.0820  -83.6740 C.3    73  LEU73       0.0001
     48  CD2       45.8060  374.0030  -84.7690 C.3    73  LEU73       0.0001
     49  N         49.4770  374.2700  -84.3400 N.am   74  GLY74      -0.1940
     50  CA        49.9270  375.4810  -85.0160 C.3    74  GLY74       0.2014
     51  C         50.8060  375.2260  -86.2070 C.2    74  GLY74       0.2639
     52  O         51.2450  374.1010  -86.4300 O.2    74  GLY74      -0.2714
     53  N         51.0320  376.2720  -86.9930 N.am   75  CYS75      -0.1967
     54  CA        51.9520  376.1650  -88.0990 C.3    75  CYS75       0.1712
     55  C         52.8010  377.4270  -88.2510 C.2    75  CYS75       0.2296
     56  O         52.5120  378.4790  -87.6650 O.2    75  CYS75      -0.2864
     57  CB        51.2150  375.7720  -89.3990 C.3    75  CYS75       0.0983
     58  SG        50.1950  377.0470  -90.1420 S.3    75  CYS75      -0.0798
     59  N         50.2370  380.1580  -92.7230 N.3    80  ARG80      -0.1231
     60  CA        48.9060  380.3400  -92.1120 C.3    80  ARG80       0.1694
     61  C         47.8630  380.8260  -93.1080 C.2    80  ARG80       0.2592
     62  O         48.1860  381.3660  -94.1690 O.2    80  ARG80      -0.2718
     63  CB        48.9980  381.2770  -90.9130 C.3    80  ARG80       0.0321
     64  CG        49.7470  380.6480  -89.7510 C.3    80  ARG80       0.0489
     65  CD        49.9550  381.5860  -88.5830 C.3    80  ARG80       0.2205
     66  NE        50.9570  380.9590  -87.7180 N.pl3  80  ARG80      -0.0865
     67  CZ        51.6060  381.5830  -86.7500 C.cat  80  ARG80       0.5346
     68  NH1       51.3250  382.8560  -86.4510 N.pl3  80  ARG80       0.1354
     69  NH2       52.5280  380.9340  -86.0740 N.pl3  80  ARG80       0.1354
     70  N         46.5970  380.6220  -92.7370 N.am   81  ARG81      -0.1966
     71  CA        45.4120  380.9680  -93.5490 C.3    81  ARG81       0.1729
     72  C         45.4020  380.1980  -94.8700 C.2    81  ARG81       0.2616
     73  O         44.9840  380.7490  -95.8980 O.2    81  ARG81      -0.2715
     74  CB        45.2930  382.4870  -93.8340 C.3    81  ARG81       0.0348
     75  CG        45.3220  383.4330  -92.6500 C.3    81  ARG81       0.0492
     76  CD        44.0410  383.3860  -91.8180 C.3    81  ARG81       0.2205
     77  NE        43.0950  384.4960  -92.0240 N.pl3  81  ARG81      -0.0865
     78  CZ        41.8560  384.3060  -92.4530 C.cat  81  ARG81       0.5346
     79  NH1       41.4550  383.0790  -92.7410 N.pl3  81  ARG81       0.1354
     80  NH2       41.0230  385.3140  -92.5970 N.pl3  81  ARG81       0.1354
     81  N         45.8670  378.9460  -94.8430 N.am   82  LEU82      -0.1963
     82  CA        45.8430  378.0330  -96.0040 C.3    82  LEU82       0.1728
     83  C         45.0100  376.7860  -95.6980 C.2    82  LEU82       0.2617
     84  O         44.9050  375.8920  -96.5310 O.2    82  LEU82      -0.2715
     85  CB        47.2590  377.5890  -96.4360 C.3    82  LEU82       0.0311
     86  CG        48.1540  378.7290  -96.9410 C.3    82  LEU82       0.0022
     87  CD1       49.5920  378.2700  -97.0580 C.3    82  LEU82       0.0001
     88  CD2       47.6450  379.3020  -98.2370 C.3    82  LEU82       0.0001
     89  N         44.3950  376.7590  -94.5300 N.am   83  GLY83      -0.1940
     90  CA        43.5310  375.6290  -94.1180 C.3    83  GLY83       0.2014
     91  C         44.2620  374.5240  -93.3650 C.2    83  GLY83       0.2639
     92  O         43.6900  373.4700  -93.1100 O.2    83  GLY83      -0.2714
     93  N         45.5110  374.7730  -92.9810 N.am   84  ILE84      -0.1963
     94  CA        46.2980  373.7760  -92.2380 C.3    84  ILE84       0.1727
     95  C         45.7450  373.5630  -90.8250 C.2    84  ILE84       0.2617
     96  O         45.5180  372.4180  -90.4120 O.2    84  ILE84      -0.2715
     97  CB        47.8170  374.1020  -92.2610 C.3    84  ILE84       0.0290
     98  CG1       48.3320  374.0850  -93.7080 C.3    84  ILE84       0.0022
     99  CG2       48.6390  373.0980  -91.4180 C.3    84  ILE84       0.0023
    100  CD1       49.7250  374.6070  -93.8830 C.3    84  ILE84       0.0001
    101  N         45.4570  374.6620  -90.1260 N.am   85  GLY85      -0.1940
    102  CA        44.8920  374.5730  -88.7720 C.3    85  GLY85       0.2014
    103  C         43.5650  373.8500  -88.8380 C.2    85  GLY85       0.2639
    104  O         43.2680  373.0340  -87.9870 O.2    85  GLY85      -0.2714
    105  N         42.7830  374.1440  -89.8720 N.am   86  THR86      -0.1950
    106  CA        41.4580  373.4900  -90.0560 C.3    86  THR86       0.1897
    107  C         41.6450  371.9720  -90.1990 C.2    86  THR86       0.2313
    108  O         40.9380  371.1980  -89.5730 O.2    86  THR86      -0.2863
    109  CB        40.6890  374.0910  -91.2620 C.3    86  THR86       0.1794
    110  OG1       40.2880  375.4420  -90.9480 O.3    86  THR86      -0.2208
    111  CG2       39.4300  373.2760  -91.5820 C.3    86  THR86       0.0378
    112  N         41.8140  374.0540  -74.7770 N.3   106  LEU106     -0.1231
    113  CA        43.2140  374.4800  -74.8330 C.3   106  LEU106      0.1693
    114  C         43.3480  375.8380  -74.1720 C.2   106  LEU106      0.2592
    115  O         42.3390  376.4760  -73.8430 O.2   106  LEU106     -0.2718
    116  CB        43.7260  374.5560  -76.2870 C.3   106  LEU106      0.0284
    117  CG        43.1730  375.7420  -77.1030 C.3   106  LEU106      0.0019
    118  CD1       44.1950  376.2410  -78.1010 C.3   106  LEU106      0.0001
    119  CD2       41.8600  375.3710  -77.7510 C.3   106  LEU106      0.0001
    120  N         44.5880  376.2870  -73.9890 N.am  107  HIS107     -0.1962
    121  CA        44.8680  377.6170  -73.4660 C.3   107  HIS107      0.1787
    122  C         45.3460  378.5230  -74.5970 C.2   107  HIS107      0.2620
    123  O         46.1180  378.1020  -75.4500 O.2   107  HIS107     -0.2715
    124  CB        45.9080  377.5690  -72.3360 C.3   107  HIS107      0.0785
    125  CG        45.5060  376.6960  -71.1900 C.ar  107  HIS107      0.0821
    126  ND1       44.6460  377.1170  -70.2010 N.ar  107  HIS107     -0.2267
    127  CD2       45.8340  375.4230  -70.8830 C.ar  107  HIS107      0.1154
    128  CE1       44.4600  376.1390  -69.3330 C.ar  107  HIS107      0.1986
    129  NE2       45.1620  375.0940  -69.7300 N.ar  107  HIS107     -0.2212
    130  N         44.8610  379.7580  -74.6140 N.am  108  VAL108     -0.1963
    131  CA        45.2960  380.7260  -75.6260 C.3   108  VAL108      0.1727
    132  C         45.7190  382.0360  -74.9220 C.2   108  VAL108      0.2616
    133  O         44.9150  382.6480  -74.2210 O.2   108  VAL108     -0.2715
    134  CB        44.1610  381.0220  -76.6880 C.3   108  VAL108      0.0290
    135  CG1       44.5760  382.1030  -77.6540 C.3   108  VAL108      0.0023
    136  CG2       43.8030  379.7660  -77.4940 C.3   108  VAL108      0.0023
    137  N         46.9520  382.4760  -75.1470 N.am  109  GLN109     -0.1977
    138  CA        47.4340  383.7570  -74.6090 C.3   109  GLN109      0.1601
    139  C         46.4610  384.8770  -75.0000 C.2   109  GLN109      0.2287
    140  O         45.9700  384.9090  -76.1450 O.2   109  GLN109     -0.2864
    141  CB        48.8400  384.0250  -75.1240 C.3   109  GLN109      0.0394
    142  CG        49.5060  385.2000  -74.4640 C.3   109  GLN109      0.0908
    143  CD        50.9500  385.3410  -74.8950 C.2   109  GLN109      0.2608
    144  OE1       51.3380  384.8690  -75.9670 O.2   109  GLN109     -0.2717
    145  NE2       51.7600  385.9730  -74.0510 N.am  109  GLN109     -0.0878
    146  N         46.4850  386.7810  -78.3750 N.3   112  ASN112     -0.1240
    147  CA        46.4840  386.0300  -79.6120 C.3   112  ASN112      0.1653
    148  C         45.1400  386.1270  -80.3290 C.2   112  ASN112      0.2266
    149  O         44.3510  385.1740  -80.3250 O.2   112  ASN112     -0.2867
    150  CB        46.8310  384.5560  -79.3050 C.3   112  ASN112      0.1155
    151  CG        47.3980  383.8210  -80.4990 C.2   112  ASN112      0.2627
    152  OD1       47.0490  384.1010  -81.6450 O.2   112  ASN112     -0.2716
    153  ND2       48.2840  382.8610  -80.2330 N.am  112  ASN112     -0.0877
    154  N         44.3880  386.1160  -83.4650 N.3   114  SER114     -0.1202
    155  CA        44.1580  385.1780  -84.5620 C.3   114  SER114      0.2020
    156  C         43.7540  383.7900  -84.0840 C.2   114  SER114      0.2618
    157  O         42.8980  383.1480  -84.6920 O.2   114  SER114     -0.2717
    158  CB        45.3400  385.1400  -85.5330 C.3   114  SER114      0.2103
    159  OG        46.4600  384.5180  -84.9510 O.3   114  SER114     -0.2182
    160  N         44.3240  383.3170  -82.9790 N.am  115  ALA115     -0.1979
    161  CA        43.9070  382.0210  -82.4370 C.3   115  ALA115      0.1597
    162  C         42.4920  382.1140  -81.8370 C.2   115  ALA115      0.2287
    163  O         41.6580  381.2160  -82.0070 O.2   115  ALA115     -0.2864
    164  CB        44.9150  381.5030  -81.4080 C.3   115  ALA115      0.0319
    165  N         40.0840  384.0510  -82.8100 N.3   117  ASP117     -0.1225
    166  CA        39.1670  384.0440  -83.9860 C.3   117  ASP117      0.1805
    167  C         38.9610  382.6240  -84.5860 C.2   117  ASP117      0.2598
    168  O         37.8240  382.1930  -84.8770 O.2   117  ASP117     -0.2718
    169  CB        39.6800  384.9820  -85.0800 C.3   117  ASP117      0.1424
    170  CG        39.5310  386.4660  -84.7260 C.2   117  ASP117      0.3668
    171  OD1       38.9350  386.8220  -83.6800 O.co2 117  ASP117     -0.2456
    172  OD2       40.0280  387.2990  -85.5220 O.co2 117  ASP117     -0.2456
    173  N         40.0680  381.9100  -84.7240 N.am  118  PHE118     -0.1962
    174  CA        40.1040  380.5710  -85.3150 C.3   118  PHE118      0.1771
    175  C         39.2650  379.6140  -84.4740 C.2   118  PHE118      0.2619
    176  O         38.3680  378.9360  -84.9950 O.2   118  PHE118     -0.2715
    177  CB        41.5580  380.0800  -85.4040 C.3   118  PHE118      0.0574
    178  CG        41.6870  378.6060  -85.8100 C.ar  118  PHE118     -0.0200
    179  CD1       41.4300  378.2080  -87.1310 C.ar  118  PHE118     -0.0042
    180  CD2       42.0720  377.6440  -84.8630 C.ar  118  PHE118     -0.0042
    181  CE1       41.5290  376.8470  -87.5080 C.ar  118  PHE118     -0.0003
    182  CE2       42.1800  376.2780  -85.2440 C.ar  118  PHE118     -0.0003
    183  CZ        41.8900  375.9100  -86.5510 C.ar  118  PHE118     -0.0000
    184  N         39.4960  379.5960  -83.1630 N.am  119  TYR119     -0.1974
    185  CA        38.7700  378.6510  -82.2960 C.3   119  TYR119      0.1639
    186  C         37.3070  379.0310  -82.1190 C.2   119  TYR119      0.2290
    187  O         36.4170  378.1510  -82.0880 O.2   119  TYR119     -0.2864
    188  CB        39.4900  378.4380  -80.9530 C.3   119  TYR119      0.0560
    189  CG        40.7070  377.5760  -81.0980 C.ar  119  TYR119     -0.0198
    190  CD1       40.5910  376.1860  -81.2840 C.ar  119  TYR119     -0.0009
    191  CD2       41.9740  378.1390  -81.1100 C.ar  119  TYR119     -0.0009
    192  CE1       41.7240  375.3840  -81.4600 C.ar  119  TYR119      0.0417
    193  CE2       43.1400  377.3290  -81.3010 C.ar  119  TYR119      0.0417
    194  CZ        42.9920  375.9660  -81.4750 C.ar  119  TYR119      0.1957
    195  OH        44.1010  375.1570  -81.6540 O.3   119  TYR119     -0.2866
    196  N         35.5240  380.3640  -84.3770 N.3   121  LYS121     -0.1231
    197  CA        34.8940  379.9620  -85.6450 C.3   121  LYS121      0.1693
    198  C         34.4610  378.4900  -85.6010 C.2   121  LYS121      0.2592
    199  O         33.4900  378.0980  -86.2410 O.2   121  LYS121     -0.2718
    200  CB        35.8420  380.1950  -86.8260 C.3   121  LYS121      0.0285
    201  CG        35.2090  379.9800  -88.2270 C.3   121  LYS121      0.0035
    202  CD        34.3810  381.1910  -88.6780 C.3   121  LYS121      0.0206
    203  CE        33.9540  381.0590  -90.1560 C.3   121  LYS121      0.1093
    204  NZ        33.1070  382.2040  -90.6130 N.3   121  LYS121     -0.1314
    205  N         35.2050  377.6770  -84.8560 N.am  122  PHE122     -0.1976
    206  CA        34.9230  376.2510  -84.7490 C.3   122  PHE122      0.1639
    207  C         34.0010  375.8750  -83.5890 C.2   122  PHE122      0.2290
    208  O         33.8570  374.6790  -83.2710 O.2   122  PHE122     -0.2864
    209  CB        36.2390  375.4720  -84.5940 C.3   122  PHE122      0.0560
    210  CG        36.8700  375.0810  -85.8740 C.ar  122  PHE122     -0.0200
    211  CD1       37.6040  376.0030  -86.6140 C.ar  122  PHE122     -0.0042
    212  CD2       36.7480  373.7730  -86.3450 C.ar  122  PHE122     -0.0042
    213  CE1       38.1960  375.6400  -87.8100 C.ar  122  PHE122     -0.0003
    214  CE2       37.3630  373.3810  -87.5460 C.ar  122  PHE122     -0.0003
    215  CZ        38.0790  374.3250  -88.2810 C.ar  122  PHE122     -0.0000
    216  N         51.2060  382.0940  -67.8840 N.3   134  TYR134     -0.1241
    217  CA        52.5750  382.0810  -68.4110 C.3   134  TYR134      0.1605
    218  C         53.5710  382.7030  -67.4420 C.2   134  TYR134      0.2264
    219  O         53.4020  383.8420  -67.0010 O.2   134  TYR134     -0.2867
    220  CB        52.6610  382.7710  -69.7690 C.3   134  TYR134      0.0534
    221  CG        51.7690  382.1380  -70.7860 C.ar  134  TYR134     -0.0201
    222  CD1       52.1070  380.9180  -71.3750 C.ar  134  TYR134     -0.0009
    223  CD2       50.5630  382.7410  -71.1480 C.ar  134  TYR134     -0.0009
    224  CE1       51.2740  380.3320  -72.3070 C.ar  134  TYR134      0.0417
    225  CE2       49.7280  382.1660  -72.0800 C.ar  134  TYR134      0.0417
    226  CZ        50.0860  380.9480  -72.6520 C.ar  134  TYR134      0.1957
    227  OH        49.2640  380.3520  -73.5760 O.3   134  TYR134     -0.2866
@<TRIPOS>BOND
     1    88    86    1
     2    87    86    1
     3    86    85    1
     4    84    83    2
     5    85    82    1
     6    82    83    1
     7    82    81    1
     8    73    72    2
     9    83    89   am
    10    72    81   am
    11    72    71    1
    12    89    90    1
    13    62    61    2
    14    90    91    1
    15   100    98    1
    16    74    71    1
    17    74    75    1
    18    98    97    1
    19    71    70    1
    20    91    92    2
    21    91    93   am
    22    61    70   am
    23    61    60    1
    24    93    94    1
    25    79    78    1
    26    59    60    1
    27    75    76    1
    28    80    78    1
    29    78    77    2
    30    97    94    1
    31    97    99    1
    32    94    95    1
    33    60    63    1
    34    77    76    1
    35   111   109    1
    36   109   110    1
    37   109   106    1
    38    63    64    1
    39    95    96    2
    40    95   101   am
    41   204   203    1
    42   107   106    1
    43   107   108    2
    44   203   202    1
    45    58    57    1
    46   101   102    1
    47   106   105    1
    48   105   103   am
    49    64    65    1
    50    57    54    1
    51   103   102    1
    52   103   104    2
    53   202   201    1
    54    65    66    1
    55   215   213   ar
    56   215   214   ar
    57    55    54    1
    58    55    56    2
    59   201   200    1
    60    54    53    1
    61   213   211   ar
    62    66    67    2
    63   214   212   ar
    64   181   179   ar
    65   181   183   ar
    66   179   178   ar
    67    53    51   am
    68   200   197    1
    69    67    68    1
    70    67    69    1
    71   211   210   ar
    72   183   182   ar
    73    52    51    2
    74   212   210   ar
    75   199   198    2
    76    51    50    1
    77   210   209    1
    78     8     6    1
    79   178   177    1
    80   178   180   ar
    81   197   198    1
    82   197   196    1
    83   198   205   am
    84   158   159    1
    85   158   155    1
    86   172   170   ar
    87     6     5    1
    88   177   174    1
    89   174   173    1
    90   174   175    1
    91   182   180   ar
    92   169   170    1
    93   169   166    1
    94    50    49    1
    95   176   175    2
    96   168   167    2
    97   205   206    1
    98    48    46    1
    99   206   209    1
   100   206   207    1
   101   170   171   ar
   102   173   167   am
   103   157   156    2
   104   167   166    1
   105   155   156    1
   106   155   154    1
   107   175   184   am
   108    49    43   am
   109   156   160   am
   110   166   165    1
   111     5     7    1
   112     5     2    1
   113    46    47    1
   114    46    45    1
   115   207   208    2
   116     2     1    1
   117     2     3    1
   118    43    44    2
   119    43    42    1
   120   184   185    1
   121   160   161    1
   122    45    42    1
   123    42    41    1
   124   161   162    1
   125   161   164    1
   126   185   186    1
   127   185   188    1
   128   186   187    2
   129   163   162    2
   130     3     4    2
   131     3     9   am
   132   195   194    1
   133   152   151    2
   134    19    18   ar
   135    19    17   ar
   136    18    16   ar
   137   194   192   ar
   138   194   193   ar
   139   192   190   ar
   140   193   191   ar
   141   190   189   ar
   142    41    36   am
   143   191   189   ar
   144   189   188    1
   145     9    10    1
   146    37    36    2
   147    17    15   ar
   148    16    14   ar
   149    36    35    1
   150   151   153   am
   151   151   150    1
   152   148   149    2
   153   148   147    1
   154    15    14   ar
   155    14    13    1
   156    39    38    1
   157   147   150    1
   158   147   146    1
   159    10    13    1
   160    10    11    1
   161    38    35    1
   162    38    40    1
   163    35    34    1
   164    12    11    2
   165    11    20   am
   166   118   117    1
   167    20    26    1
   168    20    21    1
   169   119   117    1
   170    26    25    1
   171   135   134    1
   172   136   134    1
   173   117   116    1
   174    21    24    1
   175    21    22    1
   176   134   131    1
   177    24    25    1
   178   116   113    1
   179   140   139    2
   180   144   143    2
   181    30    29    2
   182    22    27   am
   183    22    23    2
   184   131   132    1
   185   131   130    1
   186    27    28    1
   187   123   122    2
   188   137   132   am
   189   137   138    1
   190   141   138    1
   191   141   142    1
   192   139   138    1
   193   132   133    2
   194   143   142    1
   195   143   145   am
   196    29    28    1
   197   113   112    1
   198   113   114    1
   199   130   122   am
   200   122   121    1
   201    28    31    1
   202   114   120   am
   203   114   115    2
   204    33    31    1
   205   120   121    1
   206   227   226    1
   207   121   124    1
   208    31    32    1
   209   226   224   ar
   210   226   225   ar
   211   124   125    1
   212   224   222   ar
   213   225   223   ar
   214   222   221   ar
   215   125   127   ar
   216   125   126   ar
   217   223   221   ar
   218   127   129   ar
   219   221   220    1
   220   126   128   ar
   221   220   217    1
   222   129   128   ar
   223   217   216    1
   224   217   218    1
   225   218   219    2
