@<TRIPOS>MOLECULE
tmp/2obcA00.pdb
 120 113 0 0 0
SMALL
GASTEIGER

@<TRIPOS>ATOM
      1  N         61.5660   54.6820   19.9760 N.3   143  LYS143     -0.1245
      2  CA        60.9890   55.8430   20.6550 C.3   143  LYS143      0.1561
      3  C         61.9280   56.3570   21.7200 C.2   143  LYS143      0.2260
      4  O         62.6020   55.5830   22.3840 O.2   143  LYS143     -0.2867
      5  CB        59.5990   55.5590   21.2240 C.3   143  LYS143      0.0271
      6  CG        59.5280   55.2620   22.7190 C.3   143  LYS143      0.0035
      7  CD        59.2140   56.5010   23.5400 C.3   143  LYS143      0.0206
      8  CE        59.8670   56.4140   24.9320 C.3   143  LYS143      0.1093
      9  NZ        59.0730   55.6440   25.9530 N.3   143  LYS143     -0.1314
     10  N         57.9470   53.2980   35.5910 N.3   154  GLU154     -0.1231
     11  CA        57.9300   54.4750   34.7300 C.3   154  GLU154      0.1699
     12  C         56.6030   54.6300   33.9620 C.2   154  GLU154      0.2592
     13  O         56.5510   54.5070   32.7330 O.2   154  GLU154     -0.2718
     14  CB        59.1370   54.4710   33.7750 C.3   154  GLU154      0.0402
     15  CG        60.4920   54.7240   34.4460 C.3   154  GLU154      0.1161
     16  CD        60.6720   56.1570   34.9290 C.2   154  GLU154      0.3649
     17  OE1       61.1710   56.3390   36.0600 O.co2 154  GLU154     -0.2457
     18  OE2       60.3210   57.0980   34.1830 O.co2 154  GLU154     -0.2457
     19  N         55.5300   54.8790   34.7080 N.am  155  SER155     -0.1952
     20  CA        54.2430   55.2970   34.1340 C.3   155  SER155      0.1924
     21  C         53.7470   56.5720   34.8370 C.2   155  SER155      0.2314
     22  O         52.7730   57.2030   34.4040 O.2   155  SER155     -0.2863
     23  CB        53.2050   54.1680   34.1960 C.3   155  SER155      0.2116
     24  OG        53.3970   53.2470   33.1360 O.3   155  SER155     -0.2180
     25  N         55.4000   58.8840   34.4330 N.3   157  TRP157     -0.1241
     26  CA        56.2680   59.6010   33.4920 C.3   157  TRP157      0.1605
     27  C         56.2720   61.1270   33.6650 C.2   157  TRP157      0.2264
     28  O         55.2160   61.7680   33.7840 O.2   157  TRP157     -0.2867
     29  CB        55.9420   59.2250   32.0290 C.3   157  TRP157      0.0550
     30  CG        56.6920   58.0130   31.4780 C.ar  157  TRP157      0.0003
     31  CD1       57.8880   57.5100   31.9200 C.ar  157  TRP157      0.0946
     32  CD2       56.3030   57.1860   30.3620 C.ar  157  TRP157      0.0152
     33  NE1       58.2590   56.4170   31.1630 N.ar  157  TRP157     -0.2442
     34  CE2       57.3080   56.1970   30.2010 C.ar  157  TRP157      0.0810
     35  CE3       55.2050   57.1830   29.4870 C.ar  157  TRP157      0.0012
     36  CZ2       57.2420   55.2110   29.2020 C.ar  157  TRP157      0.0191
     37  CZ3       55.1380   56.2010   28.4940 C.ar  157  TRP157      0.0001
     38  CH2       56.1530   55.2310   28.3610 C.ar  157  TRP157      0.0015
     39  N         51.9610   51.4750   20.4220 N.3   171  ARG171     -0.1245
     40  CA        52.1910   50.0780   20.8140 C.3   171  ARG171      0.1563
     41  C         51.1090   49.1870   20.2170 C.2   171  ARG171      0.2260
     42  O         51.3900   48.1690   19.5910 O.2   171  ARG171     -0.2867
     43  CB        52.1280   49.9090   22.3250 C.3   171  ARG171      0.0307
     44  CG        53.3010   50.4290   23.1110 C.3   171  ARG171      0.0489
     45  CD        52.9910   50.3120   24.5960 C.3   171  ARG171      0.2205
     46  NE        54.1660   50.5570   25.4150 N.pl3 171  ARG171     -0.0865
     47  CZ        54.2440   50.3150   26.7230 C.cat 171  ARG171      0.5346
     48  NH1       53.2100   49.8190   27.3900 N.pl3 171  ARG171      0.1354
     49  NH2       55.3710   50.5730   27.3720 N.pl3 171  ARG171      0.1354
     50  N         66.1780   47.7190   31.3340 N.3   183  THR183     -0.1218
     51  CA        64.9050   48.3960   31.4460 C.3   183  THR183      0.1862
     52  C         63.9740   47.5340   32.2830 C.2   183  THR183      0.2287
     53  O         63.3200   48.0240   33.2060 O.2   183  THR183     -0.2866
     54  CB        64.3110   48.6370   30.0560 C.3   183  THR183      0.1770
     55  OG1       65.2050   49.4760   29.3070 O.3   183  THR183     -0.2211
     56  CG2       62.9230   49.2700   30.1420 C.3   183  THR183      0.0375
     57  N         62.8690   48.9980   35.8770 N.3   187  ASP187     -0.1239
     58  CA        61.4780   49.4420   35.9340 C.3   187  ASP187      0.1674
     59  C         60.4720   48.3400   36.2830 C.2   187  ASP187      0.2266
     60  O         59.4500   48.6110   36.9080 O.2   187  ASP187     -0.2867
     61  CB        61.0800   50.1360   34.6240 C.3   187  ASP187      0.1410
     62  CG        61.9450   51.3590   34.3170 C.2   187  ASP187      0.3668
     63  OD1       62.1600   51.6670   33.1180 O.co2 187  ASP187     -0.2456
     64  OD2       62.4160   52.0130   35.2750 O.co2 187  ASP187     -0.2456
     65  N         58.5740   46.7590   33.9960 N.3   189  PRO189     -0.2102
     66  CA        57.3970   47.1350   33.2170 C.3   189  PRO189      0.1504
     67  C         56.5640   45.9260   32.8270 C.2   189  PRO189      0.2576
     68  O         57.0070   44.7860   32.9980 O.2   189  PRO189     -0.2718
     69  CB        58.0050   47.7360   31.9530 C.3   189  PRO189      0.0282
     70  CG        59.3040   47.0180   31.7940 C.3   189  PRO189      0.0208
     71  CD        59.8100   46.8640   33.1980 C.3   189  PRO189      0.0893
     72  N         55.3730   46.1800   32.2940 N.am  190  ALA190     -0.1966
     73  CA        54.4990   45.1190   31.8010 C.3   190  ALA190      0.1728
     74  C         54.5220   45.0580   30.2700 C.2   190  ALA190      0.2616
     75  O         54.1220   44.0510   29.6720 O.2   190  ALA190     -0.2715
     76  CB        53.0860   45.3100   32.3120 C.3   190  ALA190      0.0334
     77  N         55.0020   46.1360   29.6490 N.am  191  LEU191     -0.1977
     78  CA        55.0810   46.2550   28.1910 C.3   191  LEU191      0.1596
     79  C         53.8340   45.8180   27.4060 C.2   191  LEU191      0.2287
     80  O         53.9490   45.2750   26.3110 O.2   191  LEU191     -0.2864
     81  CB        56.3360   45.5660   27.6760 C.3   191  LEU191      0.0297
     82  CG        57.6150   46.3090   28.0620 C.3   191  LEU191      0.0022
     83  CD1       58.7730   45.7850   27.2350 C.3   191  LEU191      0.0001
     84  CD2       57.4640   47.8070   27.8620 C.3   191  LEU191      0.0001
     85  N         47.0190   48.7420   27.4140 N.3   194  ARG194     -0.1245
     86  CA        45.8450   48.7450   28.2790 C.3   194  ARG194      0.1563
     87  C         44.7100   49.3550   27.5110 C.2   194  ARG194      0.2260
     88  O         44.7150   50.5500   27.2370 O.2   194  ARG194     -0.2867
     89  CB        46.0870   49.5140   29.5840 C.3   194  ARG194      0.0307
     90  CG        46.5600   48.6450   30.7650 C.3   194  ARG194      0.0489
     91  CD        48.0300   48.2340   30.6450 C.3   194  ARG194      0.2205
     92  NE        48.8820   49.4100   30.4770 N.pl3 194  ARG194     -0.0865
     93  CZ        50.1990   49.3920   30.3070 C.cat 194  ARG194      0.5346
     94  NH1       50.8680   48.2480   30.2780 N.pl3 194  ARG194      0.1354
     95  NH2       50.8470   50.5370   30.1660 N.pl3 194  ARG194      0.1354
     96  N         57.2430   41.1360   36.2090 N.3   230  ARG230     -0.1245
     97  CA        55.8860   41.3900   35.7530 C.3   230  ARG230      0.1563
     98  C         55.7730   41.0960   34.2760 C.2   230  ARG230      0.2260
     99  O         54.7240   40.6830   33.7960 O.2   230  ARG230     -0.2867
    100  CB        55.4690   42.8370   36.0460 C.3   230  ARG230      0.0307
    101  CG        55.3680   43.1700   37.5360 C.3   230  ARG230      0.0489
    102  CD        55.2350   44.6790   37.7990 C.3   230  ARG230      0.2205
    103  NE        53.8910   45.1900   37.5080 N.pl3 230  ARG230     -0.0865
    104  CZ        53.5110   45.7270   36.3460 C.cat 230  ARG230      0.5346
    105  NH1       54.3640   45.8430   35.3350 N.pl3 230  ARG230      0.1354
    106  NH2       52.2650   46.1570   36.1950 N.pl3 230  ARG230      0.1354
    107  N         61.0050   50.1330   23.3230 N.3   284  GLU284     -0.1231
    108  CA        61.0180   50.8950   24.5690 C.3   284  GLU284      0.1699
    109  C         62.2720   50.4940   25.3180 C.2   284  GLU284      0.2592
    110  O         62.2110   49.7070   26.2690 O.2   284  GLU284     -0.2718
    111  CB        59.8200   50.5700   25.4680 C.3   284  GLU284      0.0402
    112  CG        58.4600   50.6640   24.8240 C.3   284  GLU284      0.1161
    113  CD        57.7140   51.9280   25.1730 C.2   284  GLU284      0.3649
    114  OE1       56.4650   51.8830   25.2000 O.co2 284  GLU284     -0.2457
    115  OE2       58.3710   52.9590   25.4230 O.co2 284  GLU284     -0.2457
    116  N         63.4130   51.0240   24.8980 N.am  285  ALA285     -0.1980
    117  CA        64.6760   50.7310   25.5870 C.3   285  ALA285      0.1597
    118  C         65.2520   51.9630   26.2860 C.2   285  ALA285      0.2287
    119  O         64.7530   53.0800   26.0980 O.2   285  ALA285     -0.2864
    120  CB        65.6860   50.1670   24.6070 C.3   285  ALA285      0.0319
@<TRIPOS>BOND
     1    42    41    2
     2     1     2    1
     3    41    40    1
     4    39    40    1
     5     2     5    1
     6     2     3    1
     7    40    43    1
     8     5     6    1
     9     3     4    2
    10    43    44    1
    11     6     7    1
    12    44    45    1
    13   107   108    1
    14     7     8    1
    15   108   109    1
    16   108   111    1
    17    45    46    1
    18   120   117    1
    19   112   113    1
    20   112   111    1
    21   116   109   am
    22   116   117    1
    23     8     9    1
    24   113   114   ar
    25   113   115   ar
    26   109   110    2
    27    46    47    2
    28   117   118    1
    29   119   118    2
    30    80    79    2
    31    47    49    1
    32    47    48    1
    33    83    82    1
    34    88    87    2
    35    79    78    1
    36    85    86    1
    37    87    86    1
    38    81    82    1
    39    81    78    1
    40    84    82    1
    41    78    77    1
    42    86    89    1
    43    38    37   ar
    44    38    36   ar
    45    37    35   ar
    46    36    34   ar
    47    55    54    1
    48    35    32   ar
    49    89    90    1
    50    77    74   am
    51    75    74    2
    52    54    56    1
    53    54    51    1
    54    95    93    1
    55    34    32   ar
    56    34    33   ar
    57    74    73    1
    58    94    93    1
    59    93    92    2
    60    32    30   ar
    61    92    91    1
    62    91    90    1
    63    33    31   ar
    64    50    51    1
    65    51    52    1
    66    30    31   ar
    67    30    29    1
    68    70    69    1
    69    70    71    1
    70    73    72    1
    71    73    76    1
    72    69    66    1
    73    29    26    1
    74    52    53    2
    75    72    67   am
    76    13    12    2
    77    67    68    2
    78    67    66    1
    79    63    62   ar
    80    24    23    1
    81    71    65    1
    82    66    65    1
    83    26    27    1
    84    26    25    1
    85    27    28    2
    86    14    15    1
    87    14    11    1
    88    99    98    2
    89    12    19   am
    90    12    11    1
    91    20    23    1
    92    20    19    1
    93    20    21    1
    94    18    16   ar
    95    98    97    1
    96    62    61    1
    97    62    64   ar
    98    22    21    2
    99    15    16    1
   100    61    58    1
   101    11    10    1
   102    16    17   ar
   103   105   104    1
   104    97   100    1
   105    97    96    1
   106    57    58    1
   107    58    59    1
   108   100   101    1
   109   106   104    1
   110    59    60    2
   111   104   103    2
   112   103   102    1
   113   101   102    1
