@<TRIPOS>MOLECULE
tmp/2obdA07.pdb
 70 68 0 0 0
SMALL
GASTEIGER

@<TRIPOS>ATOM
      1  N         -2.0760   -4.6600   26.6340 N.3     3  HIS3       -0.1241
      2  CA        -2.1980   -3.4300   27.4190 C.3     3  HIS3        0.1621
      3  C         -1.8650   -2.2130   26.5700 C.2     3  HIS3        0.2264
      4  O         -1.0320   -2.2880   25.6750 O.2     3  HIS3       -0.2867
      5  CB        -1.2680   -3.5130   28.6300 C.3     3  HIS3        0.0745
      6  CG        -1.4400   -4.7680   29.4260 C.ar    3  HIS3        0.0817
      7  ND1       -2.3210   -4.8660   30.4830 N.ar    3  HIS3       -0.2268
      8  CD2       -0.8750   -5.9910   29.2930 C.ar    3  HIS3        0.1154
      9  CE1       -2.2830   -6.0930   30.9710 C.ar    3  HIS3        0.1986
     10  NE2       -1.4100   -6.7950   30.2710 N.ar    3  HIS3       -0.2212
     11  N         -3.0700    0.2700   41.2050 N.3   127  ALA127     -0.1245
     12  CA        -2.9320    1.6250   40.7210 C.3   127  ALA127      0.1562
     13  C         -3.7080    2.5550   41.6300 C.2   127  ALA127      0.2260
     14  O         -4.8700    2.2910   41.9650 O.2   127  ALA127     -0.2867
     15  CB        -3.4760    1.7170   39.3020 C.3   127  ALA127      0.0290
     16  N         -2.5330    7.0870   39.5390 N.3   130  GLY130     -0.1225
     17  CA        -1.5060    6.8390   38.5040 C.3   130  GLY130      0.1811
     18  C         -0.1940    6.2890   39.0320 C.2   130  GLY130      0.2280
     19  O          0.7820    6.1780   38.3070 O.2   130  GLY130     -0.2866
     20  N          0.2760    5.3010   35.5550 N.3   213  LEU213     -0.1231
     21  CA        -0.1280    3.9420   35.1990 C.3   213  LEU213      0.1693
     22  C         -1.4000    3.9000   34.3690 C.2   213  LEU213      0.2593
     23  O         -2.3290    4.6670   34.6000 O.2   213  LEU213     -0.2718
     24  CB        -0.3700    3.1050   36.4450 C.3   213  LEU213      0.0284
     25  CG         0.6990    2.5500   37.3800 C.3   213  LEU213      0.0019
     26  CD1       -0.0540    1.7200   38.3920 C.3   213  LEU213      0.0001
     27  CD2        1.7370    1.7050   36.7190 C.3   213  LEU213      0.0001
     28  N         -1.4510    2.9510   33.4340 N.am  214  THR214     -0.1939
     29  CA        -2.5980    2.7570   32.5530 C.3   214  THR214      0.2028
     30  C         -3.5460    1.6390   33.0370 C.2   214  THR214      0.2643
     31  O         -4.6300    1.4540   32.4800 O.2   214  THR214     -0.2714
     32  CB        -2.1400    2.4850   31.1080 C.3   214  THR214      0.1808
     33  OG1       -1.3320    1.3150   31.0910 O.3   214  THR214     -0.2208
     34  CG2       -1.3130    3.6350   30.5960 C.3   214  THR214      0.0379
     35  N         -3.1470    0.9140   34.0770 N.am  215  GLY215     -0.1939
     36  CA        -3.9760   -0.1330   34.6640 C.3   215  GLY215      0.2014
     37  C         -3.2310   -0.7100   35.8470 C.2   215  GLY215      0.2639
     38  O         -2.0740   -0.3570   36.0680 O.2   215  GLY215     -0.2714
     39  N         -3.8770   -1.5970   36.6080 N.am  216  ASP216     -0.1957
     40  CA        -3.2450   -2.1730   37.7970 C.3   216  ASP216      0.1825
     41  C         -2.0180   -2.8950   37.3250 C.2   216  ASP216      0.2464
     42  O         -2.0130   -3.4060   36.2000 O.2   216  ASP216     -0.2730
     43  CB        -4.1510   -3.1900   38.5070 C.3   216  ASP216      0.1450
     44  CG        -5.2620   -2.5370   39.3400 C.2   216  ASP216      0.3671
     45  OD1       -6.2660   -3.2510   39.5870 O.co2 216  ASP216     -0.2456
     46  OD2       -5.1470   -1.3480   39.7440 O.co2 216  ASP216     -0.2456
     47  N         -0.9670   -2.9460   38.1620 N.am  217  PRO217     -0.2715
     48  CA         0.1590   -3.7390   37.7010 C.3   217  PRO217      0.1536
     49  C         -0.2820   -5.1900   37.5430 C.2   217  PRO217      0.2598
     50  O         -1.3810   -5.5550   37.9820 O.2   217  PRO217     -0.2715
     51  CB         1.1910   -3.5970   38.8350 C.3   217  PRO217      0.0310
     52  CG         0.7880   -2.4310   39.5950 C.3   217  PRO217      0.0237
     53  CD        -0.7080   -2.3330   39.4750 C.3   217  PRO217      0.0939
     54  N          0.5570   -6.0040   36.9120 N.am  218  VAL218     -0.1978
     55  CA         0.2440   -7.4100   36.6470 C.3   218  VAL218      0.1596
     56  C          1.2750   -8.2730   37.3590 C.2   218  VAL218      0.2287
     57  O          2.4500   -7.9160   37.4060 O.2   218  VAL218     -0.2864
     58  CB         0.2890   -7.7210   35.1050 C.3   218  VAL218      0.0276
     59  CG1        0.5370   -9.2070   34.8310 C.3   218  VAL218      0.0022
     60  CG2       -0.9860   -7.2430   34.4160 C.3   218  VAL218      0.0022
     61  N          2.5610   -0.7960   33.6050 N.3   227  HIS227     -0.1241
     62  CA         2.3570   -0.1530   32.3010 C.3   227  HIS227      0.1621
     63  C          2.1220    1.3260   32.4680 C.2   227  HIS227      0.2264
     64  O          1.2250    1.7240   33.1960 O.2   227  HIS227     -0.2867
     65  CB         1.2020   -0.8310   31.5790 C.3   227  HIS227      0.0745
     66  CG         1.2750   -2.3230   31.6560 C.ar  227  HIS227      0.0817
     67  ND1        0.4810   -3.0610   32.5060 N.ar  227  HIS227     -0.2268
     68  CD2        2.1080   -3.2030   31.0530 C.ar  227  HIS227      0.1154
     69  CE1        0.7930   -4.3420   32.3850 C.ar  227  HIS227      0.1986
     70  NE2        1.7790   -4.4550   31.5090 N.ar  227  HIS227     -0.2212
@<TRIPOS>BOND
     1     4     3    2
     2     3     2    1
     3     1     2    1
     4     2     5    1
     5     5     6    1
     6     8     6   ar
     7     8    10   ar
     8     6     7   ar
     9    10     9   ar
    10     7     9   ar
    11    34    32    1
    12    68    70   ar
    13    68    66   ar
    14    33    32    1
    15    32    29    1
    16    70    69   ar
    17    65    66    1
    18    65    62    1
    19    66    67   ar
    20    62    63    1
    21    62    61    1
    22    69    67   ar
    23    63    64    2
    24    31    30    2
    25    29    30    1
    26    29    28    1
    27    30    35   am
    28    28    22   am
    29    35    36    1
    30    22    23    2
    31    22    21    1
    32    60    58    1
    33    36    37    1
    34    59    58    1
    35    58    55    1
    36    21    20    1
    37    21    24    1
    38    37    38    2
    39    37    39   am
    40    42    41    2
    41    24    25    1
    42    39    40    1
    43    55    54    1
    44    55    56    1
    45    27    25    1
    46    54    49   am
    47    41    40    1
    48    41    47   am
    49    56    57    2
    50    25    26    1
    51    49    48    1
    52    49    50    2
    53    48    47    1
    54    48    51    1
    55    40    43    1
    56    47    53    1
    57    19    18    2
    58    17    18    1
    59    17    16    1
    60    43    44    1
    61    51    52    1
    62    15    12    1
    63    44    45   ar
    64    44    46   ar
    65    53    52    1
    66    12    11    1
    67    12    13    1
    68    13    14    2
