@<TRIPOS>MOLECULE
tmp/2obeB05.pdb
 103 96 0 0 0
SMALL
GASTEIGER

@<TRIPOS>ATOM
      1  N        -56.6730   62.4230   13.5620 N.3   461  MET461     -0.1245
      2  CA       -57.8000   61.9590   14.4040 C.3   461  MET461      0.1570
      3  C        -57.9970   62.8220   15.6270 C.2   461  MET461      0.2261
      4  O        -59.1130   62.9080   16.1460 O.2   461  MET461     -0.2867
      5  CB       -57.5350   60.5240   14.8840 C.3   461  MET461      0.0387
      6  CG       -57.4660   59.4640   13.7250 C.3   461  MET461      0.0595
      7  SD       -57.0820   57.8560   14.4790 S.3   461  MET461     -0.1393
      8  CE       -56.8200   56.8750   12.9910 C.3   461  MET461      0.0692
      9  N        -69.2510   51.3810   13.5350 N.3   489  VAL489     -0.1231
     10  CA       -67.9320   51.8250   14.0440 C.3   489  VAL489      0.1692
     11  C        -67.4800   50.7490   15.0480 C.2   489  VAL489      0.2592
     12  O        -68.2350   50.3570   15.9460 O.2   489  VAL489     -0.2718
     13  CB       -68.0110   53.2400   14.7460 C.3   489  VAL489      0.0266
     14  CG1      -66.7130   53.6090   15.5170 C.3   489  VAL489      0.0020
     15  CG2      -68.3030   54.3180   13.7400 C.3   489  VAL489      0.0020
     16  N        -66.2890   50.2220   14.8340 N.am  490  ASN490     -0.1974
     17  CA       -65.7300   49.2090   15.6890 C.3   490  ASN490      0.1688
     18  C        -65.7860   49.6740   17.1520 C.2   490  ASN490      0.2292
     19  O        -65.0570   50.5870   17.5130 O.2   490  ASN490     -0.2864
     20  CB       -64.2720   48.9470   15.2890 C.3   490  ASN490      0.1181
     21  CG       -63.6690   47.7910   16.0800 C.2   490  ASN490      0.2629
     22  OD1      -64.0740   47.5600   17.2120 O.2   490  ASN490     -0.2716
     23  ND2      -62.7300   47.0730   15.4910 N.am  490  ASN490     -0.0877
     24  N        -62.5030   49.7170   19.6200 N.3   493  ASN493     -0.1240
     25  CA       -61.4240   50.7390   19.4660 C.3   493  ASN493      0.1653
     26  C        -61.8490   51.9540   20.2760 C.2   493  ASN493      0.2266
     27  O        -62.4280   52.9130   19.7230 O.2   493  ASN493     -0.2867
     28  CB       -61.2800   51.1180   17.9800 C.3   493  ASN493      0.1155
     29  CG       -60.7420   49.9420   17.1330 C.2   493  ASN493      0.2627
     30  OD1      -60.1640   48.9690   17.7030 O.2   493  ASN493     -0.2716
     31  ND2      -60.9520   49.9910   15.8150 N.am  493  ASN493     -0.0877
     32  N        -57.3650   54.0080   19.4400 N.3   554  LEU554     -0.1231
     33  CA       -57.8070   54.8090   18.2810 C.3   554  LEU554      0.1693
     34  C        -57.6440   54.0890   16.9550 C.2   554  LEU554      0.2592
     35  O        -58.3230   54.4160   15.9930 O.2   554  LEU554     -0.2718
     36  CB       -57.0280   56.1640   18.2160 C.3   554  LEU554      0.0284
     37  CG       -57.3740   57.1850   19.3210 C.3   554  LEU554      0.0019
     38  CD1      -56.5630   58.4450   19.1030 C.3   554  LEU554      0.0001
     39  CD2      -58.8740   57.5110   19.3290 C.3   554  LEU554      0.0001
     40  N        -56.7230   53.1250   16.8790 N.am  555  GLY555     -0.1957
     41  CA       -56.5540   52.3430   15.6320 C.3   555  GLY555      0.1869
     42  C        -55.7060   53.0670   14.6010 C.2   555  GLY555      0.2309
     43  O        -55.6950   52.7000   13.4240 O.2   555  GLY555     -0.2863
     44  N        -64.4300   44.8440    8.0940 N.3   641  LYS641     -0.1245
     45  CA       -63.8710   45.9370    7.2960 C.3   641  LYS641      0.1561
     46  C        -62.5640   45.5200    6.6850 C.2   641  LYS641      0.2260
     47  O        -61.6640   44.9680    7.3790 O.2   641  LYS641     -0.2867
     48  CB       -63.6910   47.2330    8.1570 C.3   641  LYS641      0.0271
     49  CG       -65.0510   47.8300    8.5400 C.3   641  LYS641      0.0035
     50  CD       -64.9700   49.2790    9.0060 C.3   641  LYS641      0.0206
     51  CE       -66.3430   49.7260    9.5630 C.3   641  LYS641      0.1093
     52  NZ       -66.1510   51.0150   10.2840 N.3   641  LYS641     -0.1314
     53  N        -60.1160   47.4650    5.8050 N.3   643  LYS643     -0.1231
     54  CA       -58.9270   48.1750    6.3700 C.3   643  LYS643      0.1693
     55  C        -58.4920   47.5630    7.7510 C.2   643  LYS643      0.2591
     56  O        -57.3600   47.7800    8.2460 O.2   643  LYS643     -0.2718
     57  CB       -59.2430   49.6530    6.5320 C.3   643  LYS643      0.0285
     58  CG       -60.2440   49.8970    7.6540 C.3   643  LYS643      0.0035
     59  CD       -60.6330   51.3910    7.7950 C.3   643  LYS643      0.0206
     60  CE       -59.4260   52.3240    7.7390 C.3   643  LYS643      0.1093
     61  NZ       -58.6670   52.4580    9.0420 N.3   643  LYS643     -0.1314
     62  N        -59.4070   46.8060    8.3590 N.am  644  GLU644     -0.1979
     63  CA       -59.1760   46.2370    9.7130 C.3   644  GLU644      0.1602
     64  C        -58.7260   44.7810    9.6330 C.2   644  GLU644      0.2287
     65  O        -58.6260   44.1130   10.6610 O.2   644  GLU644     -0.2864
     66  CB       -60.4480   46.3210   10.5910 C.3   644  GLU644      0.0415
     67  CG       -60.9190   47.7570   10.8700 C.3   644  GLU644      0.1163
     68  CD       -62.1960   47.8590   11.7600 C.2   644  GLU644      0.3649
     69  OE1      -62.8850   46.8370   11.9500 O.co2 644  GLU644     -0.2457
     70  OE2      -62.5330   48.9880   12.1820 O.co2 644  GLU644     -0.2457
     71  N        -53.3960   50.2510   10.2080 N.3   658  TYR658     -0.1241
     72  CA       -54.4740   50.3090   11.1690 C.3   658  TYR658      0.1605
     73  C        -53.9880   49.4140   12.2760 C.2   658  TYR658      0.2264
     74  O        -53.2550   48.4270   11.9980 O.2   658  TYR658     -0.2867
     75  CB       -55.7600   49.7470   10.5390 C.3   658  TYR658      0.0534
     76  CG       -56.8130   49.2440   11.5310 C.ar  658  TYR658     -0.0201
     77  CD1      -57.7870   50.1200   12.0290 C.ar  658  TYR658     -0.0009
     78  CD2      -56.8360   47.9010   11.9580 C.ar  658  TYR658     -0.0009
     79  CE1      -58.7650   49.6940   12.9480 C.ar  658  TYR658      0.0417
     80  CE2      -57.8280   47.4480   12.8510 C.ar  658  TYR658      0.0417
     81  CZ       -58.7860   48.3650   13.3600 C.ar  658  TYR658      0.1957
     82  OH       -59.7780   47.9660   14.2390 O.3   658  TYR658     -0.2866
     83  N        -68.5360   42.9650   15.0150 N.3   670  TYR670     -0.1241
     84  CA       -69.5210   44.0130   15.3530 C.3   670  TYR670      0.1605
     85  C        -70.4170   44.4390   14.2010 C.2   670  TYR670      0.2264
     86  O        -71.1770   45.3640   14.3670 O.2   670  TYR670     -0.2867
     87  CB       -68.8070   45.2550   15.9350 C.3   670  TYR670      0.0534
     88  CG       -67.8880   45.8880   14.9360 C.ar  670  TYR670     -0.0201
     89  CD1      -66.5900   45.3820   14.7360 C.ar  670  TYR670     -0.0009
     90  CD2      -68.3010   46.9870   14.1890 C.ar  670  TYR670     -0.0009
     91  CE1      -65.7520   45.9530   13.8250 C.ar  670  TYR670      0.0417
     92  CE2      -67.4400   47.5860   13.2220 C.ar  670  TYR670      0.0417
     93  CZ       -66.1820   47.0490   13.0610 C.ar  670  TYR670      0.1957
     94  OH       -65.2720   47.6060   12.1350 O.3   670  TYR670     -0.2866
     95  N        -67.6340   51.7250    2.4860 N.3   869  GLU869     -0.1245
     96  CA       -66.2580   51.3720    2.3260 C.3   869  GLU869      0.1567
     97  C        -66.2330   49.9160    2.0050 C.2   869  GLU869      0.2260
     98  O        -67.2480   49.1990    2.1620 O.2   869  GLU869     -0.2867
     99  CB       -65.4650   51.6070    3.6070 C.3   869  GLU869      0.0388
    100  CG       -66.1120   51.0150    4.8440 C.3   869  GLU869      0.1160
    101  CD       -65.3840   51.4210    6.1370 C.2   869  GLU869      0.3649
    102  OE1      -66.0840   51.8910    7.0870 O.co2 869  GLU869     -0.2457
    103  OE2      -64.1190   51.2670    6.2070 O.co2 869  GLU869     -0.2457
@<TRIPOS>BOND
     1    97    98    2
     2    97    96    1
     3    96    95    1
     4    96    99    1
     5    99   100    1
     6   100   101    1
     7    53    54    1
     8   101   103   ar
     9   101   102   ar
    10    54    57    1
    11    54    55    1
    12    57    58    1
    13    46    45    1
    14    46    47    2
    15    45    44    1
    16    45    48    1
    17    58    59    1
    18    60    59    1
    19    60    61    1
    20    55    56    2
    21    55    62   am
    22    48    49    1
    23    62    63    1
    24    49    50    1
    25    50    51    1
    26    51    52    1
    27    64    63    1
    28    64    65    2
    29    63    66    1
    30    71    72    1
    31    75    72    1
    32    75    76    1
    33    66    67    1
    34    67    68    1
    35    72    73    1
    36    76    78   ar
    37    76    77   ar
    38    68    69   ar
    39    68    70   ar
    40    78    80   ar
    41    74    73    2
    42    77    79   ar
    43    94    93    1
    44    80    81   ar
    45    79    81   ar
    46     8     7    1
    47    93    92   ar
    48    93    91   ar
    49    92    90   ar
    50    81    82    1
    51    43    42    2
    52     9    10    1
    53     1     2    1
    54     6     7    1
    55     6     5    1
    56    15    13    1
    57    91    89   ar
    58    10    13    1
    59    10    11    1
    60    90    88   ar
    61    85    86    2
    62    85    84    1
    63     2     5    1
    64     2     3    1
    65    42    41    1
    66    89    88   ar
    67    13    14    1
    68    16    11   am
    69    16    17    1
    70    88    87    1
    71    83    84    1
    72    11    12    2
    73    20    17    1
    74    20    21    1
    75    84    87    1
    76    23    21   am
    77     3     4    2
    78    41    40    1
    79    17    18    1
    80    31    29   am
    81    35    34    2
    82    21    22    2
    83    40    34   am
    84    34    33    1
    85    29    30    2
    86    29    28    1
    87    18    19    2
    88    28    25    1
    89    36    33    1
    90    36    37    1
    91    33    32    1
    92    38    37    1
    93    37    39    1
    94    25    24    1
    95    25    26    1
    96    27    26    2
