@<TRIPOS>MOLECULE
tmp/2obeB03.pdb
 89 82 0 0 0
SMALL
GASTEIGER

@<TRIPOS>ATOM
      1  N        -65.3520    7.1690   57.2530 N.3    15  ALA15      -0.1231
      2  CA       -66.4300    6.9750   58.2220 C.3    15  ALA15       0.1694
      3  C        -67.4020    5.8550   57.7730 C.2    15  ALA15       0.2592
      4  O        -67.9140    5.1190   58.6090 O.2    15  ALA15      -0.2718
      5  CB       -67.1830    8.3030   58.4710 C.3    15  ALA15       0.0304
      6  N        -67.6570    5.7220   56.4710 N.am   16  SER16      -0.1952
      7  CA       -68.6290    4.7080   56.0140 C.3    16  SER16       0.1924
      8  C        -68.1450    3.2960   56.3440 C.2    16  SER16       0.2314
      9  O        -68.9370    2.3430   56.4410 O.2    16  SER16      -0.2863
     10  CB       -68.9240    4.8640   54.5190 C.3    16  SER16       0.2116
     11  OG       -67.7580    4.6550   53.7470 O.3    16  SER16      -0.2180
     12  N        -67.5180    3.2450   61.0610 N.3    19  LEU19      -0.1245
     13  CA       -68.7280    3.3960   61.8740 C.3    19  LEU19       0.1561
     14  C        -69.5230    2.1020   61.8370 C.2    19  LEU19       0.2260
     15  O        -69.4520    1.3750   60.8490 O.2    19  LEU19      -0.2867
     16  CB       -69.5750    4.5420   61.3030 C.3    19  LEU19       0.0270
     17  CG       -68.9690    5.9200   61.5660 C.3    19  LEU19       0.0019
     18  CD1      -69.9220    7.0010   61.1230 C.3    19  LEU19       0.0001
     19  CD2      -68.5680    6.0720   63.1000 C.3    19  LEU19       0.0001
     20  N        -75.2850    2.6270   62.1670 N.3    23  LEU23      -0.1231
     21  CA       -75.1530    4.0720   62.1550 C.3    23  LEU23       0.1693
     22  C        -75.0800    4.5800   60.7340 C.2    23  LEU23       0.2591
     23  O        -75.6860    5.6370   60.3800 O.2    23  LEU23      -0.2718
     24  CB       -73.9110    4.5060   62.9590 C.3    23  LEU23       0.0284
     25  CG       -73.6900    6.0390   63.0160 C.3    23  LEU23       0.0019
     26  CD1      -74.9900    6.8270   63.3340 C.3    23  LEU23       0.0001
     27  CD2      -72.5920    6.3560   64.0520 C.3    23  LEU23       0.0001
     28  N        -74.3300    3.8750   59.8830 N.am   24  VAL24      -0.1980
     29  CA       -74.1830    4.4030   58.5070 C.3    24  VAL24       0.1595
     30  C        -75.5090    4.3060   57.7650 C.2    24  VAL24       0.2287
     31  O        -75.8030    5.1570   56.9410 O.2    24  VAL24      -0.2864
     32  CB       -73.1120    3.6960   57.6660 C.3    24  VAL24       0.0276
     33  CG1      -73.0880    4.3230   56.2980 C.3    24  VAL24       0.0022
     34  CG2      -71.7430    3.7930   58.3020 C.3    24  VAL24       0.0022
     35  N        -77.7380    7.0870   59.1140 N.3    27  ALA27      -0.1231
     36  CA       -77.3330    8.3940   58.6450 C.3    27  ALA27       0.1694
     37  C        -77.7050    8.6450   57.1990 C.2    27  ALA27       0.2591
     38  O        -78.1130    9.7590   56.8440 O.2    27  ALA27      -0.2718
     39  CB       -75.8670    8.6020   58.8260 C.3    27  ALA27       0.0304
     40  N        -77.5180    7.6460   56.3470 N.am   28  ARG28      -0.1980
     41  CA       -77.8620    7.8260   54.9430 C.3    28  ARG28       0.1597
     42  C        -79.3800    7.9610   54.8160 C.2    28  ARG28       0.2287
     43  O        -79.8460    8.6650   53.9500 O.2    28  ARG28      -0.2864
     44  CB       -77.3520    6.6440   54.1190 C.3    28  ARG28       0.0334
     45  CG       -75.8670    6.7070   53.8020 C.3    28  ARG28       0.0492
     46  CD       -75.3350    5.3160   53.4350 C.3    28  ARG28       0.2205
     47  NE       -73.9240    5.4060   53.0590 N.pl3  28  ARG28      -0.0865
     48  CZ       -73.1500    4.3650   52.7580 C.cat  28  ARG28       0.5346
     49  NH1      -73.6460    3.1260   52.7790 N.pl3  28  ARG28       0.1354
     50  NH2      -71.8750    4.5740   52.4230 N.pl3  28  ARG28       0.1354
     51  N        -80.1480   11.7090   56.3510 N.3    31  ASP31      -0.1239
     52  CA       -79.3240   12.8150   55.9420 C.3    31  ASP31       0.1674
     53  C        -80.0170   14.0940   55.4200 C.2    31  ASP31       0.2266
     54  O        -79.3890   15.1680   55.4350 O.2    31  ASP31      -0.2867
     55  CB       -78.2710   12.3860   54.9180 C.3    31  ASP31       0.1410
     56  CG       -77.1460   13.4110   54.7880 C.2    31  ASP31       0.3668
     57  OD1      -76.9350   13.9750   53.6870 O.co2  31  ASP31      -0.2456
     58  OD2      -76.4700   13.6760   55.8080 O.co2  31  ASP31      -0.2456
     59  N        -75.4700   14.1560   59.7020 N.3    36  LEU36      -0.1231
     60  CA       -74.4360   13.6680   60.5950 C.3    36  LEU36       0.1693
     61  C        -73.0230   13.6380   59.9730 C.2    36  LEU36       0.2592
     62  O        -72.0660   13.4440   60.6970 O.2    36  LEU36      -0.2718
     63  CB       -74.8110   12.2630   61.0910 C.3    36  LEU36       0.0284
     64  CG       -76.0350   12.2230   61.9970 C.3    36  LEU36       0.0019
     65  CD1      -76.6070   10.8010   62.1070 C.3    36  LEU36       0.0001
     66  CD2      -75.6190   12.7220   63.3480 C.3    36  LEU36       0.0001
     67  N        -72.8840   13.8080   58.6580 N.am   37  GLY37      -0.1957
     68  CA       -71.5530   13.7480   58.0160 C.3    37  GLY37       0.1869
     69  C        -70.3520   14.4390   58.7000 C.2    37  GLY37       0.2309
     70  O        -69.2860   13.8240   58.9030 O.2    37  GLY37      -0.2863
     71  N        -67.7040   13.1930   61.8640 N.3    40  PHE40      -0.1241
     72  CA       -66.8110   12.0460   61.6650 C.3    40  PHE40       0.1605
     73  C        -65.6790   12.3410   60.6700 C.2    40  PHE40       0.2264
     74  O        -65.9420   12.7390   59.5220 O.2    40  PHE40      -0.2867
     75  CB       -67.6360   10.7870   61.2680 C.3    40  PHE40       0.0534
     76  CG       -68.8080   10.5120   62.2020 C.ar   40  PHE40      -0.0203
     77  CD1      -70.1000   10.9020   61.8510 C.ar   40  PHE40      -0.0042
     78  CD2      -68.6090    9.9490   63.4450 C.ar   40  PHE40      -0.0042
     79  CE1      -71.1870   10.6560   62.7250 C.ar   40  PHE40      -0.0003
     80  CE2      -69.6740    9.7230   64.3050 C.ar   40  PHE40      -0.0003
     81  CZ       -70.9700   10.0950   63.9270 C.ar   40  PHE40      -0.0000
     82  N        -62.9040   11.7910   57.9240 N.3    42  ASN42      -0.1240
     83  CA       -62.6290   10.8580   56.8150 C.3    42  ASN42       0.1653
     84  C        -61.2290   11.1960   56.3340 C.2    42  ASN42       0.2266
     85  O        -61.0410   12.2050   55.6470 O.2    42  ASN42      -0.2867
     86  CB       -63.6220   11.1190   55.6610 C.3    42  ASN42       0.1155
     87  CG       -65.0660   10.7490   56.0350 C.2    42  ASN42       0.2627
     88  OD1      -65.4160    9.5770   56.0920 O.2    42  ASN42      -0.2716
     89  ND2      -65.8960   11.7530   56.3040 N.am   42  ASN42      -0.0877
@<TRIPOS>BOND
     1    50    48    1
     2    48    49    1
     3    48    47    2
     4    47    46    1
     5    46    45    1
     6    57    56   ar
     7    11    10    1
     8    45    44    1
     9    43    42    2
    10    44    41    1
    11    10     7    1
    12    56    55    1
    13    56    58   ar
    14    42    41    1
    15    55    52    1
    16    41    40    1
    17    53    54    2
    18    53    52    1
    19    85    84    2
    20    86    87    1
    21    86    83    1
    22    52    51    1
    23     7     8    1
    24     7     6    1
    25    87    88    2
    26    87    89   am
    27    33    32    1
    28    84    83    1
    29     8     9    2
    30    40    37   am
    31     6     3   am
    32    83    82    1
    33    38    37    2
    34    31    30    2
    35    37    36    1
    36     1     2    1
    37    32    34    1
    38    32    29    1
    39    30    29    1
    40     3     2    1
    41     3     4    2
    42    68    67    1
    43    68    69    1
    44     2     5    1
    45    29    28    1
    46    36    39    1
    47    36    35    1
    48    67    61   am
    49    69    70    2
    50    74    73    2
    51    59    60    1
    52    28    22   am
    53    61    60    1
    54    61    62    2
    55    23    22    2
    56    60    63    1
    57    73    72    1
    58    22    21    1
    59    15    14    2
    60    12    13    1
    61    63    64    1
    62    18    17    1
    63    75    72    1
    64    75    76    1
    65    16    17    1
    66    16    13    1
    67    17    19    1
    68    72    71    1
    69    14    13    1
    70    77    76   ar
    71    77    79   ar
    72    64    65    1
    73    64    66    1
    74    21    20    1
    75    21    24    1
    76    76    78   ar
    77    79    81   ar
    78    24    25    1
    79    25    26    1
    80    25    27    1
    81    78    80   ar
    82    81    80   ar
