@<TRIPOS>MOLECULE
tmp/2obeB10.pdb
 113 107 0 0 0
SMALL
GASTEIGER

@<TRIPOS>ATOM
      1  N        -67.4000   59.4450   16.4410 N.3   438  LEU438     -0.1245
      2  CA       -68.2300   59.4490   15.2940 C.3   438  LEU438      0.1561
      3  C        -67.3160   59.3000   14.0750 C.2   438  LEU438      0.2260
      4  O        -66.1620   59.7240   14.1330 O.2   438  LEU438     -0.2867
      5  CB       -68.9490   60.7800   15.2080 C.3   438  LEU438      0.0270
      6  CG       -70.2880   60.8710   15.9330 C.3   438  LEU438      0.0019
      7  CD1      -70.8270   62.3220   15.8850 C.3   438  LEU438      0.0001
      8  CD2      -71.3040   59.8870   15.3170 C.3   438  LEU438      0.0001
      9  N        -68.4360   63.2090    9.9640 N.3   442  TYR442     -0.1241
     10  CA       -69.2030   64.0680   10.8670 C.3   442  TYR442      0.1605
     11  C        -68.3690   65.2420   11.4250 C.2   442  TYR442      0.2264
     12  O        -68.8980   66.0390   12.2190 O.2   442  TYR442     -0.2867
     13  CB       -69.7530   63.2680   12.0640 C.3   442  TYR442      0.0534
     14  CG       -70.9200   62.4030   11.6700 C.ar  442  TYR442     -0.0201
     15  CD1      -70.7100   61.1060   11.1600 C.ar  442  TYR442     -0.0009
     16  CD2      -72.2380   62.8910   11.7400 C.ar  442  TYR442     -0.0009
     17  CE1      -71.8050   60.3080   10.7240 C.ar  442  TYR442      0.0417
     18  CE2      -73.3350   62.0890   11.3380 C.ar  442  TYR442      0.0417
     19  CZ       -73.1020   60.8040   10.8490 C.ar  442  TYR442      0.1957
     20  OH       -74.1410   60.0230   10.4270 O.3   442  TYR442     -0.2866
     21  N        -73.0050   69.2150   19.7320 N.3   469  SER469     -0.1202
     22  CA       -74.4320   69.0560   19.6420 C.3   469  SER469      0.2020
     23  C        -74.8200   67.8920   18.7610 C.2   469  SER469      0.2618
     24  O        -76.0250   67.5580   18.6550 O.2   469  SER469     -0.2717
     25  CB       -75.1280   70.3680   19.1850 C.3   469  SER469      0.2103
     26  OG       -74.6600   70.7580   17.9190 O.3   469  SER469     -0.2182
     27  N        -73.8370   67.2360   18.1440 N.am  470  LEU470     -0.1979
     28  CA       -74.1450   65.9590   17.4550 C.3   470  LEU470      0.1596
     29  C        -74.5650   64.8470   18.4070 C.2   470  LEU470      0.2287
     30  O        -75.3060   63.9330   18.0240 O.2   470  LEU470     -0.2864
     31  CB       -72.9690   65.4870   16.5940 C.3   470  LEU470      0.0297
     32  CG       -72.7680   66.3310   15.3250 C.3   470  LEU470      0.0022
     33  CD1      -71.3430   66.2110   14.8600 C.3   470  LEU470      0.0001
     34  CD2      -73.7860   65.8680   14.2320 C.3   470  LEU470      0.0001
     35  N        -79.9620   63.7510   23.2680 N.3   475  ILE475     -0.1231
     36  CA       -79.8880   62.7550   22.1710 C.3   475  ILE475      0.1692
     37  C        -80.8860   61.6160   22.3810 C.2   475  ILE475      0.2592
     38  O        -80.8720   60.9660   23.4420 O.2   475  ILE475     -0.2718
     39  CB       -78.4550   62.1610   22.0640 C.3   475  ILE475      0.0266
     40  CG1      -78.3170   61.2240   20.8640 C.3   475  ILE475      0.0019
     41  CG2      -78.0280   61.4040   23.3690 C.3   475  ILE475      0.0020
     42  CD1      -78.4020   61.8720   19.4400 C.3   475  ILE475      0.0001
     43  N        -81.7730   61.3870   21.3990 N.am  476  ASN476     -0.1974
     44  CA       -82.8560   60.3890   21.5710 C.3   476  ASN476      0.1688
     45  C        -83.2850   60.2730   23.0290 C.2   476  ASN476      0.2292
     46  O        -83.1710   59.2160   23.6540 O.2   476  ASN476     -0.2864
     47  CB       -82.4170   59.0430   21.0080 C.3   476  ASN476      0.1181
     48  CG       -82.1090   59.1520   19.5370 C.2   476  ASN476      0.2629
     49  OD1      -83.0070   59.4160   18.7170 O.2   476  ASN476     -0.2716
     50  ND2      -80.8380   59.0270   19.1990 N.am  476  ASN476     -0.0877
     51  N        -76.5640   54.9350   18.2920 N.3   483  LEU483     -0.1231
     52  CA       -76.6700   55.8420   17.1280 C.3   483  LEU483      0.1693
     53  C        -76.4230   55.0700   15.8130 C.2   483  LEU483      0.2592
     54  O        -75.4960   54.2370   15.7320 O.2   483  LEU483     -0.2718
     55  CB       -75.6670   57.0050   17.2890 C.3   483  LEU483      0.0284
     56  CG       -75.7960   57.8510   18.5900 C.3   483  LEU483      0.0019
     57  CD1      -74.8210   59.0280   18.4450 C.3   483  LEU483      0.0001
     58  CD2      -77.2500   58.3710   18.6550 C.3   483  LEU483      0.0001
     59  N        -77.2510   55.3160   14.7980 N.am  484  ASP484     -0.1960
     60  CA       -77.1240   54.6400   13.5080 C.3   484  ASP484      0.1825
     61  C        -75.6880   54.6320   12.9080 C.2   484  ASP484      0.2464
     62  O        -75.1730   53.5660   12.5670 O.2   484  ASP484     -0.2730
     63  CB       -78.1490   55.2450   12.5320 C.3   484  ASP484      0.1450
     64  CG       -79.6020   54.7150   12.7860 C.2   484  ASP484      0.3671
     65  OD1      -80.5960   55.2910   12.2830 O.co2 484  ASP484     -0.2456
     66  OD2      -79.7580   53.6780   13.4340 O.co2 484  ASP484     -0.2456
     67  N        -74.9970   55.8070   12.8420 N.am  485  PRO485     -0.2727
     68  CA       -73.5960   55.8070   12.3400 C.3   485  PRO485      0.1402
     69  C        -72.6450   55.0110   13.2260 C.2   485  PRO485      0.2269
     70  O        -71.7200   54.4010   12.7120 O.2   485  PRO485     -0.2865
     71  CB       -73.2230   57.2950   12.3300 C.3   485  PRO485      0.0296
     72  CG       -74.0900   57.9090   13.4060 C.3   485  PRO485      0.0237
     73  CD       -75.4430   57.1640   13.2080 C.3   485  PRO485      0.0939
     74  N        -86.8310   53.1980   18.8320 N.3   760  ARG760     -0.1245
     75  CA       -86.9930   54.5980   19.1720 C.3   760  ARG760      0.1563
     76  C        -88.1260   55.1610   18.3170 C.2   760  ARG760      0.2260
     77  O        -88.5320   54.5380   17.3300 O.2   760  ARG760     -0.2867
     78  CB       -85.7160   55.3730   18.9040 C.3   760  ARG760      0.0307
     79  CG       -85.5120   55.6230   17.4050 C.3   760  ARG760      0.0489
     80  CD       -84.3700   56.6110   17.1630 C.3   760  ARG760      0.2205
     81  NE       -84.0550   56.7110   15.7340 N.pl3 760  ARG760     -0.0865
     82  CZ       -83.2540   57.6470   15.2150 C.cat 760  ARG760      0.5346
     83  NH1      -83.0210   57.6760   13.9020 N.pl3 760  ARG760      0.1354
     84  NH2      -82.6780   58.5540   16.0020 N.pl3 760  ARG760      0.1354
     85  N        -77.8250   71.0500   11.3130 N.3   776  LEU776     -0.1245
     86  CA       -77.1070   71.2420   12.5380 C.3   776  LEU776      0.1561
     87  C        -76.7520   72.7130   12.7980 C.2   776  LEU776      0.2260
     88  O        -76.9290   73.2310   13.9130 O.2   776  LEU776     -0.2867
     89  CB       -75.8250   70.3640   12.5290 C.3   776  LEU776      0.0270
     90  CG       -75.2150   70.2330   13.9090 C.3   776  LEU776      0.0019
     91  CD1      -76.1040   69.2750   14.8010 C.3   776  LEU776      0.0001
     92  CD2      -73.8150   69.6740   13.7660 C.3   776  LEU776      0.0001
     93  N        -79.6810   74.7370   14.2660 N.3   779  GLN779     -0.1245
     94  CA       -80.3730   74.3510   15.5320 C.3   779  GLN779      0.1566
     95  C        -79.8190   75.1760   16.6690 C.2   779  GLN779      0.2260
     96  O        -78.6280   75.4980   16.6730 O.2   779  GLN779     -0.2867
     97  CB       -80.0480   72.8890   15.9130 C.3   779  GLN779      0.0367
     98  CG       -80.5500   71.8640   14.8890 C.3   779  GLN779      0.0905
     99  CD       -80.0060   70.4490   15.1490 C.2   779  GLN779      0.2608
    100  OE1      -79.0600   70.2240   15.9540 O.2   779  GLN779     -0.2717
    101  NE2      -80.5380   69.5000   14.3790 N.am  779  GLN779     -0.0878
    102  N        -85.0350   72.7300   18.8670 N.3   803  TYR803     -0.1241
    103  CA       -84.7200   71.3560   18.5730 C.3   803  TYR803      0.1605
    104  C        -84.2900   70.6690   19.8830 C.2   803  TYR803      0.2264
    105  O        -83.6670   71.3150   20.6970 O.2   803  TYR803     -0.2867
    106  CB       -83.5570   71.3000   17.5410 C.3   803  TYR803      0.0534
    107  CG       -83.0820   69.9000   17.1920 C.ar  803  TYR803     -0.0201
    108  CD1      -83.6550   69.1890   16.1510 C.ar  803  TYR803     -0.0009
    109  CD2      -82.0510   69.3050   17.9170 C.ar  803  TYR803     -0.0009
    110  CE1      -83.2070   67.8830   15.8170 C.ar  803  TYR803      0.0417
    111  CE2      -81.5920   68.0110   17.6080 C.ar  803  TYR803      0.0417
    112  CZ       -82.1950   67.3040   16.5730 C.ar  803  TYR803      0.1957
    113  OH       -81.7520   66.0450   16.2950 O.3   803  TYR803     -0.2866
@<TRIPOS>BOND
     1     9    10    1
     2    20    19    1
     3    17    19   ar
     4    17    15   ar
     5    19    18   ar
     6    10    11    1
     7    10    13    1
     8    15    14   ar
     9    85    86    1
    10    18    16   ar
    11    11    12    2
    12    14    16   ar
    13    14    13    1
    14    65    64   ar
    15    71    68    1
    16    71    72    1
    17    68    67    1
    18    68    69    1
    19    89    86    1
    20    89    90    1
    21    63    64    1
    22    63    60    1
    23    86    87    1
    24    62    61    2
    25    70    69    2
    26    64    66   ar
    27    87    88    2
    28    67    61   am
    29    67    73    1
    30    61    60    1
    31    73    72    1
    32    60    59    1
    33    92    90    1
    34    83    82    1
    35    90    91    1
    36     3     4    2
    37     3     2    1
    38    34    32    1
    39    93    94    1
    40   101    99   am
    41    59    53   am
    42    33    32    1
    43    98    99    1
    44    98    97    1
    45    99   100    2
    46     5     2    1
    47     5     6    1
    48    82    81    2
    49    82    84    1
    50     2     1    1
    51     8     6    1
    52    32    31    1
    53    94    97    1
    54    94    95    1
    55    54    53    2
    56    81    80    1
    57    53    52    1
    58   110   108   ar
    59   110   112   ar
    60     7     6    1
    61   108   107   ar
    62   113   112    1
    63   112   111   ar
    64    31    28    1
    65    95    96    2
    66    52    55    1
    67    52    51    1
    68    80    79    1
    69   107   106    1
    70   107   109   ar
    71    55    56    1
    72    77    76    2
    73    79    78    1
    74    28    27    1
    75    28    29    1
    76   106   103    1
    77   111   109   ar
    78    26    25    1
    79    30    29    2
    80    27    23   am
    81    76    75    1
    82    57    56    1
    83   103   102    1
    84   103   104    1
    85    56    58    1
    86    24    23    2
    87    49    48    2
    88    23    22    1
    89    74    75    1
    90    78    75    1
    91    25    22    1
    92    50    48   am
    93    42    40    1
    94    48    47    1
    95    22    21    1
    96   104   105    2
    97    40    39    1
    98    47    44    1
    99    43    44    1
   100    43    37   am
   101    44    45    1
   102    39    36    1
   103    39    41    1
   104    36    37    1
   105    36    35    1
   106    37    38    2
   107    45    46    2
