@<TRIPOS>MOLECULE
tmp/2objA00.pdb
 166 155 0 0 0
SMALL
GASTEIGER

@<TRIPOS>ATOM
      1  N        -25.1450   33.6820   -4.6510 N.3    12  LEU12      -0.1231
      2  CA       -24.1910   34.7500   -4.9550 C.3    12  LEU12       0.1693
      3  C        -22.9290   34.2370   -5.6280 C.2    12  LEU12       0.2593
      4  O        -22.2180   34.9990   -6.2730 O.2    12  LEU12      -0.2718
      5  CB       -23.8040   35.5010   -3.6760 C.3    12  LEU12       0.0284
      6  CG       -24.8840   36.3750   -3.0250 C.3    12  LEU12       0.0019
      7  CD1      -24.5080   36.7020   -1.5930 C.3    12  LEU12       0.0001
      8  CD2      -25.0570   37.6450   -3.8290 C.3    12  LEU12       0.0001
      9  N        -22.6370   32.9470   -5.4870 N.am   13  GLY13      -0.1942
     10  CA       -21.4450   32.4030   -6.1210 C.3    13  GLY13       0.2014
     11  C        -20.8990   31.1790   -5.4170 C.2    13  GLY13       0.2640
     12  O        -21.3450   30.8400   -4.3230 O.2    13  GLY13      -0.2714
     13  N        -19.9380   30.5030   -6.0350 N.am   14  SER14      -0.1935
     14  CA       -19.3610   29.3210   -5.4080 C.3    14  SER14       0.2055
     15  C        -18.0290   28.9580   -5.9880 C.2    14  SER14       0.2643
     16  O        -17.6450   29.4460   -7.0460 O.2    14  SER14      -0.2714
     17  CB       -20.2930   28.1160   -5.5510 C.3    14  SER14       0.2130
     18  OG       -20.1520   27.5150   -6.8300 O.3    14  SER14      -0.2179
     19  N        -17.3240   28.0740   -5.2890 N.am   15  GLY15      -0.1954
     20  CA       -16.0180   27.6290   -5.7400 C.3    15  GLY15       0.1869
     21  C        -15.5850   26.3230   -5.0940 C.2    15  GLY15       0.2309
     22  O        -16.4190   25.5150   -4.6630 O.2    15  GLY15      -0.2863
     23  N        -13.9760   26.1720   -2.3880 N.3    17  PHE17      -0.1227
     24  CA       -14.1820   26.3520   -0.9600 C.3    17  PHE17       0.1736
     25  C        -15.4450   27.1230   -0.6530 C.2    17  PHE17       0.2596
     26  O        -15.4070   28.2940   -0.2630 O.2    17  PHE17      -0.2718
     27  CB       -12.9730   27.0380   -0.3120 C.3    17  PHE17       0.0547
     28  CG       -12.0320   26.0810    0.3840 C.ar   17  PHE17      -0.0202
     29  CD1      -11.2370   25.2040   -0.3450 C.ar   17  PHE17      -0.0042
     30  CD2      -11.9600   26.0500    1.7730 C.ar   17  PHE17      -0.0042
     31  CE1      -10.3870   24.3130    0.2990 C.ar   17  PHE17      -0.0003
     32  CE2      -11.1140   25.1650    2.4230 C.ar   17  PHE17      -0.0003
     33  CZ       -10.3250   24.2940    1.6860 C.ar   17  PHE17      -0.0000
     34  N        -16.5800   26.4570   -0.8550 N.am   18  GLY18      -0.1957
     35  CA       -17.8670   27.0620   -0.5620 C.3    18  GLY18       0.1869
     36  C        -18.8390   27.4290   -1.6750 C.2    18  GLY18       0.2309
     37  O        -18.5260   27.4080   -2.8680 O.2    18  GLY18      -0.2863
     38  N        -22.0500   30.4200   -1.7830 N.3    20  VAL20      -0.1245
     39  CA       -22.5930   31.4970   -0.9690 C.3    20  VAL20       0.1561
     40  C        -23.9220   31.9610   -1.4540 C.2    20  VAL20       0.2260
     41  O        -24.1030   32.2000   -2.6450 O.2    20  VAL20      -0.2867
     42  CB       -21.6370   32.6970   -0.9330 C.3    20  VAL20       0.0252
     43  CG1      -22.2090   33.7970   -0.0500 C.3    20  VAL20       0.0019
     44  CG2      -20.2870   32.2520   -0.4260 C.3    20  VAL20       0.0019
     45  N        -25.1690   37.0370    4.3910 N.3    33  ALA33      -0.1245
     46  CA       -24.6560   36.1180    3.3870 C.3    33  ALA33       0.1562
     47  C        -24.5230   34.8100    4.0810 C.2    33  ALA33       0.2260
     48  O        -24.0430   34.7490    5.2070 O.2    33  ALA33      -0.2867
     49  CB       -23.3060   36.5790    2.8670 C.3    33  ALA33       0.0290
     50  N        -22.8200   31.2100    3.8790 N.3    35  LYS35      -0.1245
     51  CA       -21.7580   30.4340    3.2390 C.3    35  LYS35       0.1561
     52  C        -21.6980   28.9960    3.6790 C.2    35  LYS35       0.2260
     53  O        -21.5530   28.6960    4.8660 O.2    35  LYS35      -0.2867
     54  CB       -20.3980   31.0790    3.4990 C.3    35  LYS35       0.0271
     55  CG       -19.2430   30.3680    2.8200 C.3    35  LYS35       0.0035
     56  CD       -17.9210   31.0080    3.1990 C.3    35  LYS35       0.0206
     57  CE       -16.7780   30.4900    2.3320 C.3    35  LYS35       0.1093
     58  NZ       -15.4650   31.1160    2.6680 N.3    35  LYS35      -0.1314
     59  N        -11.3510   28.7410    9.4000 N.3    57  GLU57      -0.1245
     60  CA       -12.0620   29.9080    8.8990 C.3    57  GLU57       0.1567
     61  C        -12.8730   30.5590   10.0020 C.2    57  GLU57       0.2260
     62  O        -12.8210   31.7790   10.1890 O.2    57  GLU57      -0.2867
     63  CB       -12.9830   29.5050    7.7350 C.3    57  GLU57       0.0388
     64  CG       -13.6380   30.6730    7.0240 C.3    57  GLU57       0.1160
     65  CD       -14.2090   30.2920    5.6770 C.2    57  GLU57       0.3649
     66  OE1      -14.7690   31.1840    5.0140 O.co2  57  GLU57      -0.2457
     67  OE2      -14.0980   29.1110    5.2770 O.co2  57  GLU57      -0.2457
     68  N        -14.9670   41.6180    6.9120 N.3    72  ILE72      -0.1245
     69  CA       -16.2960   41.0310    6.9970 C.3    72  ILE72       0.1561
     70  C        -16.5140   40.4950    8.3850 C.2    72  ILE72       0.2260
     71  O        -15.5800   40.0080    9.0200 O.2    72  ILE72      -0.2867
     72  CB       -16.4360   39.8760    5.9730 C.3    72  ILE72       0.0252
     73  CG1      -17.9070   39.6320    5.6680 C.3    72  ILE72       0.0019
     74  CG2      -15.7550   38.6180    6.4990 C.3    72  ILE72       0.0019
     75  CD1      -18.5720   40.8200    4.9980 C.3    72  ILE72       0.0001
     76  N        -22.6340   35.6290    7.3820 N.3    88  LEU88      -0.1231
     77  CA       -21.8580   36.8560    7.2970 C.3    88  LEU88       0.1693
     78  C        -22.7360   38.0420    7.0960 C.2    88  LEU88       0.2592
     79  O        -23.8690   37.9150    6.6430 O.2    88  LEU88      -0.2718
     80  CB       -20.8750   36.8040    6.1270 C.3    88  LEU88       0.0284
     81  CG       -19.7120   35.8110    6.1680 C.3    88  LEU88       0.0019
     82  CD1      -19.2020   35.7350    7.5800 C.3    88  LEU88       0.0001
     83  CD2      -20.1440   34.4350    5.6830 C.3    88  LEU88       0.0001
     84  N        -22.2230   39.2180    7.4330 N.am   89  GLU89      -0.1966
     85  CA       -22.9850   40.4370    7.2260 C.3    89  GLU89       0.1733
     86  C        -22.9450   40.6620    5.7470 C.2    89  GLU89       0.2616
     87  O        -22.0130   40.2250    5.0830 O.2    89  GLU89      -0.2715
     88  CB       -22.3270   41.6210    7.9430 C.3    89  GLU89       0.0429
     89  CG       -20.9400   41.9920    7.4160 C.3    89  GLU89       0.1163
     90  CD       -20.2300   43.0250    8.2910 C.2    89  GLU89       0.3649
     91  OE1      -20.1500   42.8020    9.5190 O.co2  89  GLU89      -0.2457
     92  OE2      -19.7440   44.0500    7.7590 O.co2  89  GLU89      -0.2457
     93  N        -23.9650   41.3100    5.2000 N.am   90  ARG90      -0.1964
     94  CA       -23.9770   41.5950    3.7690 C.3    90  ARG90       0.1714
     95  C        -24.3770   43.0040    3.4850 C.2    90  ARG90       0.2458
     96  O        -25.5040   43.4200    3.7640 O.2    90  ARG90      -0.2730
     97  CB       -24.9160   40.6710    2.9970 C.3    90  ARG90       0.0347
     98  CG       -24.9940   41.0260    1.5090 C.3    90  ARG90       0.0492
     99  CD       -25.6880   39.9340    0.7030 C.3    90  ARG90       0.2205
    100  NE       -27.0590   39.7160    1.1490 N.pl3  90  ARG90      -0.0865
    101  CZ       -28.0790   40.5080    0.8450 C.cat  90  ARG90       0.5346
    102  NH1      -27.8940   41.5780    0.0790 N.pl3  90  ARG90       0.1354
    103  NH2      -29.2830   40.2350    1.3220 N.pl3  90  ARG90       0.1354
    104  N        -23.4480   43.7910    2.9450 N.am   91  PRO91      -0.2727
    105  CA       -23.8230   45.1690    2.6510 C.3    91  PRO91       0.1402
    106  C        -24.5430   45.2280    1.3310 C.2    91  PRO91       0.2269
    107  O        -24.4080   44.3320    0.4890 O.2    91  PRO91      -0.2865
    108  CB       -22.4810   45.8900    2.6200 C.3    91  PRO91       0.0296
    109  CG       -21.5490   44.8380    2.0950 C.3    91  PRO91       0.0237
    110  CD       -21.9900   43.5990    2.8500 C.3    91  PRO91       0.0939
    111  N        -23.6170   46.3550   -2.9880 N.3    94  VAL94      -0.1245
    112  CA       -22.2310   45.9530   -2.8210 C.3    94  VAL94       0.1561
    113  C        -21.7160   45.3840   -4.1160 C.2    94  VAL94       0.2260
    114  O        -22.4850   44.9020   -4.9460 O.2    94  VAL94      -0.2867
    115  CB       -22.0990   44.8830   -1.6910 C.3    94  VAL94       0.0252
    116  CG1      -22.7980   43.6050   -2.1040 C.3    94  VAL94       0.0019
    117  CG2      -20.6420   44.6000   -1.3860 C.3    94  VAL94       0.0019
    118  N        -17.7960   43.5300   -5.6990 N.3    96  ASP96      -0.1239
    119  CA       -16.4260   43.1660   -5.3700 C.3    96  ASP96       0.1674
    120  C        -15.4430   43.8420   -6.2810 C.2    96  ASP96       0.2266
    121  O        -15.7620   44.1420   -7.4310 O.2    96  ASP96      -0.2867
    122  CB       -16.2490   41.6340   -5.3650 C.3    96  ASP96       0.1410
    123  CG       -16.3580   41.0030   -6.7430 C.2    96  ASP96       0.3668
    124  OD1      -16.6280   39.7820   -6.7880 O.co2  96  ASP96      -0.2456
    125  OD2      -16.1550   41.6890   -7.7710 O.co2  96  ASP96      -0.2456
    126  N        -10.8930   39.8570   -5.7920 N.3   139  GLU139     -0.1231
    127  CA       -12.0810   39.0330   -5.5540 C.3   139  GLU139      0.1699
    128  C        -12.5200   38.9450   -4.1200 C.2   139  GLU139      0.2592
    129  O        -13.7050   38.7600   -3.8500 O.2   139  GLU139     -0.2718
    130  CB       -11.8580   37.6140   -6.0500 C.3   139  GLU139      0.0402
    131  CG       -12.2430   37.3830   -7.4840 C.3   139  GLU139      0.1161
    132  CD       -12.0500   35.9380   -7.8870 C.2   139  GLU139      0.3649
    133  OE1      -10.8760   35.5420   -8.1080 O.co2 139  GLU139     -0.2457
    134  OE2      -13.0720   35.2060   -7.9640 O.co2 139  GLU139     -0.2457
    135  N        -11.5730   39.0430   -3.1880 N.am  140  ASN140     -0.1974
    136  CA       -11.9040   38.9670   -1.7700 C.3   140  ASN140      0.1688
    137  C        -12.0530   40.3020   -1.0940 C.2   140  ASN140      0.2292
    138  O        -11.9130   40.4200    0.1220 O.2   140  ASN140     -0.2864
    139  CB       -10.8860   38.1060   -1.0340 C.3   140  ASN140      0.1181
    140  CG       -10.9720   36.6590   -1.4480 C.2   140  ASN140      0.2629
    141  OD1      -12.0580   36.1790   -1.7720 O.2   140  ASN140     -0.2716
    142  ND2       -9.8430   35.9480   -1.4320 N.am  140  ASN140     -0.0877
    143  N        -14.7790   43.4910   -0.8770 N.3   142  LEU142     -0.1245
    144  CA       -16.1180   43.9790   -1.1690 C.3   142  LEU142      0.1561
    145  C        -16.1770   45.4740   -1.0470 C.2   142  LEU142      0.2260
    146  O        -15.4780   46.0570   -0.2200 O.2   142  LEU142     -0.2867
    147  CB       -17.1180   43.3640   -0.1870 C.3   142  LEU142      0.0270
    148  CG       -18.0560   42.2740   -0.6970 C.3   142  LEU142      0.0019
    149  CD1      -17.3930   41.4740   -1.8210 C.3   142  LEU142      0.0001
    150  CD2      -18.4520   41.3840    0.4720 C.3   142  LEU142      0.0001
    151  N        -12.8450   39.6930    2.7210 N.3   153  ILE153     -0.1231
    152  CA       -13.6890   38.5170    2.8920 C.3   153  ILE153      0.1692
    153  C        -12.9340   37.2790    2.5310 C.2   153  ILE153      0.2592
    154  O        -11.8750   37.3430    1.9070 O.2   153  ILE153     -0.2718
    155  CB       -14.9300   38.5610    1.9820 C.3   153  ILE153      0.0266
    156  CG1      -14.4790   38.6280    0.5210 C.3   153  ILE153      0.0019
    157  CG2      -15.8160   39.7490    2.3530 C.3   153  ILE153      0.0020
    158  CD1      -15.5690   38.3020   -0.4770 C.3   153  ILE153      0.0001
    159  N        -13.4920   36.1400    2.9200 N.am  154  ASP154     -0.1974
    160  CA       -12.9170   34.8320    2.6310 C.3   154  ASP154      0.1709
    161  C        -11.5880   34.5080    3.2770 C.2   154  ASP154      0.2293
    162  O        -10.5260   34.6160    2.6510 O.2   154  ASP154     -0.2864
    163  CB       -12.8060   34.6270    1.1140 C.3   154  ASP154      0.1436
    164  CG       -12.3990   33.2040    0.7480 C.2   154  ASP154      0.3671
    165  OD1      -12.6910   32.2820    1.5520 O.co2 154  ASP154     -0.2456
    166  OD2      -11.8100   33.0030   -0.3430 O.co2 154  ASP154     -0.2456
@<TRIPOS>BOND
     1   133   132   ar
     2   134   132   ar
     3   132   131    1
     4   125   123   ar
     5   131   130    1
     6   121   120    2
     7    16    15    2
     8    18    17    1
     9   124   123   ar
    10   123   122    1
    11   120   119    1
    12     4     3    2
    13    10     9    1
    14    10    11    1
    15   130   127    1
    16    13    11   am
    17    13    14    1
    18    15    14    1
    19    15    19   am
    20   126   127    1
    21    20    19    1
    22    20    21    1
    23   118   119    1
    24     3     9   am
    25     3     2    1
    26   127   128    1
    27    17    14    1
    28    11    12    2
    29   119   122    1
    30    21    22    2
    31     2     1    1
    32     2     5    1
    33   114   113    2
    34   128   129    2
    35   128   135   am
    36   113   112    1
    37     8     6    1
    38     5     6    1
    39   135   136    1
    40     6     7    1
    41   111   112    1
    42    37    36    2
    43   112   115    1
    44    41    40    2
    45    23    24    1
    46   116   115    1
    47   149   148    1
    48    38    39    1
    49   141   140    2
    50   136   137    1
    51   136   139    1
    52   115   117    1
    53    36    35    1
    54    40    39    1
    55   140   142   am
    56   140   139    1
    57   144   145    1
    58   144   143    1
    59   144   147    1
    60   137   138    2
    61   145   146    2
    62    39    42    1
    63    24    25    1
    64    24    27    1
    65    42    44    1
    66    42    43    1
    67    34    25   am
    68    34    35    1
    69   148   147    1
    70   148   150    1
    71    25    26    2
    72   158   156    1
    73    29    31   ar
    74    29    28   ar
    75   166   164   ar
    76    27    28    1
    77   102   101    1
    78    31    33   ar
    79    28    30   ar
    80   107   106    2
    81   156   155    1
    82    99   100    1
    83    99    98    1
    84   164   163    1
    85   164   165   ar
    86   101   100    2
    87   101   103    1
    88   163   160    1
    89   106   105    1
    90    98    97    1
    91    33    32   ar
    92    30    32   ar
    93   154   153    2
    94   155   157    1
    95   155   152    1
    96   109   108    1
    97   109   110    1
    98    57    58    1
    99    57    56    1
   100   153   152    1
   101   153   159   am
   102   108   105    1
   103   160   159    1
   104   160   161    1
   105   105   104    1
   106   162   161    2
   107   151   152    1
   108    55    56    1
   109    55    54    1
   110   110   104    1
   111    49    46    1
   112   104    95   am
   113    97    94    1
   114    51    54    1
   115    51    52    1
   116    51    50    1
   117    46    47    1
   118    46    45    1
   119    95    96    2
   120    95    94    1
   121    52    53    2
   122    94    93    1
   123    47    48    2
   124    75    73    1
   125    66    65   ar
   126    87    86    2
   127    93    86   am
   128    67    65   ar
   129    73    72    1
   130    65    64    1
   131    83    81    1
   132    86    85    1
   133    72    74    1
   134    72    69    1
   135    80    81    1
   136    80    77    1
   137    81    82    1
   138    79    78    2
   139    68    69    1
   140    69    70    1
   141    64    63    1
   142    78    77    1
   143    78    84   am
   144    85    84    1
   145    85    88    1
   146    77    76    1
   147    89    88    1
   148    89    90    1
   149    63    60    1
   150    92    90   ar
   151    90    91   ar
   152    70    71    2
   153    60    59    1
   154    60    61    1
   155    61    62    2
