@<TRIPOS>MOLECULE
tmp/2oboA00.pdb
 151 144 0 0 0
SMALL
GASTEIGER

@<TRIPOS>ATOM
      1  N        208.1930   -5.8270   52.6900 N.3    43  GLN43      -0.1231
      2  CA       207.1740   -4.9980   52.0620 C.3    43  GLN43       0.1698
      3  C        206.8640   -3.7720   52.8880 C.2    43  GLN43       0.2593
      4  O        207.2080   -3.7120   54.0660 O.2    43  GLN43      -0.2718
      5  CB       205.8830   -5.8010   51.8900 C.3    43  GLN43       0.0381
      6  CG       205.1940   -6.1310   53.2100 C.3    43  GLN43       0.0905
      7  CD       203.9260   -6.9450   53.0380 C.2    43  GLN43       0.2608
      8  OE1      202.9330   -6.4760   52.4650 O.2    43  GLN43      -0.2717
      9  NE2      203.9410   -8.1650   53.5520 N.am   43  GLN43      -0.0878
     10  N        206.1480   -2.8370   52.2710 N.am   44  THR44      -0.1939
     11  CA       205.7530   -1.6010   52.9270 C.3    44  THR44       0.2028
     12  C        204.2260   -1.5000   53.0450 C.2    44  THR44       0.2642
     13  O        203.4750   -1.9710   52.1750 O.2    44  THR44      -0.2714
     14  CB       206.3020   -0.3610   52.1740 C.3    44  THR44       0.1808
     15  OG1      206.0550    0.8290   52.9390 O.3    44  THR44      -0.2208
     16  CG2      205.6570   -0.2320   50.8030 C.3    44  THR44       0.0379
     17  N        203.7860   -0.9210   54.1550 N.am   45  PHE45      -0.1973
     18  CA       202.3830   -0.7430   54.4540 C.3    45  PHE45       0.1639
     19  C        202.1780    0.4250   55.4380 C.2    45  PHE45       0.2290
     20  O        203.0170    1.3350   55.5310 O.2    45  PHE45      -0.2864
     21  CB       201.8120   -2.0600   54.9880 C.3    45  PHE45       0.0560
     22  CG       202.7200   -2.7760   55.9410 C.ar   45  PHE45      -0.0200
     23  CD1      203.9030   -3.3550   55.4970 C.ar   45  PHE45      -0.0042
     24  CD2      202.4200   -2.8220   57.2890 C.ar   45  PHE45      -0.0042
     25  CE1      204.7650   -3.9550   56.3780 C.ar   45  PHE45      -0.0003
     26  CE2      203.2850   -3.4270   58.1850 C.ar   45  PHE45      -0.0003
     27  CZ       204.4580   -3.9900   57.7300 C.ar   45  PHE45      -0.0000
     28  N        198.5270   -4.5680   60.1620 N.3    57  VAL57      -0.1245
     29  CA       198.1560   -5.9400   59.8690 C.3    57  VAL57       0.1561
     30  C        199.2580   -6.9700   60.1170 C.2    57  VAL57       0.2260
     31  O        200.4000   -6.8110   59.6610 O.2    57  VAL57      -0.2867
     32  CB       197.6540   -6.0800   58.4180 C.3    57  VAL57       0.0252
     33  CG1      196.3790   -5.3040   58.2350 C.3    57  VAL57       0.0019
     34  CG2      198.7140   -5.5820   57.4490 C.3    57  VAL57       0.0019
     35  N        199.7030   -9.6800   58.7040 N.3    59  HIS59      -0.1241
     36  CA       200.2270  -10.1310   57.4140 C.3    59  HIS59       0.1621
     37  C        201.2090   -9.1560   56.7730 C.2    59  HIS59       0.2264
     38  O        201.3590   -9.1240   55.5480 O.2    59  HIS59      -0.2867
     39  CB       199.0990  -10.4810   56.4260 C.3    59  HIS59       0.0745
     40  CG       198.3680   -9.2980   55.8640 C.ar   59  HIS59       0.0817
     41  ND1      197.0900   -8.9690   56.2590 N.ar   59  HIS59      -0.2268
     42  CD2      198.7040   -8.4000   54.9050 C.ar   59  HIS59       0.1154
     43  CE1      196.6700   -7.9170   55.5760 C.ar   59  HIS59       0.1986
     44  NE2      197.6330   -7.5570   54.7460 N.ar   59  HIS59      -0.2212
     45  N        194.3940  -10.6930   62.6620 N.3    83  ASP83      -0.1239
     46  CA       195.3320  -10.1760   61.6760 C.3    83  ASP83       0.1674
     47  C        195.8180   -8.7880   62.0910 C.2    83  ASP83       0.2266
     48  O        196.1610   -7.9720   61.2450 O.2    83  ASP83      -0.2867
     49  CB       194.6460  -10.1260   60.3090 C.3    83  ASP83       0.1410
     50  CG       195.6190  -10.0800   59.1630 C.2    83  ASP83       0.3668
     51  OD1      196.8160  -10.3470   59.3830 O.co2  83  ASP83      -0.2456
     52  OD2      195.1730   -9.8020   58.0310 O.co2  83  ASP83      -0.2456
     53  N        183.2010   -4.6050   55.5860 N.3   125  ARG125     -0.1245
     54  CA       183.3630   -4.3320   54.1720 C.3   125  ARG125      0.1563
     55  C        182.6530   -3.0580   53.7620 C.2   125  ARG125      0.2260
     56  O        181.6510   -2.6560   54.3560 O.2   125  ARG125     -0.2867
     57  CB       182.8980   -5.5140   53.3190 C.3   125  ARG125      0.0307
     58  CG       183.2040   -5.3530   51.8230 C.3   125  ARG125      0.0489
     59  CD       182.7640   -6.5490   50.9890 C.3   125  ARG125      0.2205
     60  NE       183.5460   -7.7450   51.2840 N.pl3 125  ARG125     -0.0865
     61  CZ       183.9260   -8.6320   50.3670 C.cat 125  ARG125      0.5346
     62  NH1      183.6050   -8.4490   49.0930 N.pl3 125  ARG125      0.1354
     63  NH2      184.5800   -9.7310   50.7290 N.pl3 125  ARG125      0.1354
     64  N        194.0910   -1.5660   41.9080 N.3   134  ILE134     -0.1245
     65  CA       194.6550   -1.9770   43.1890 C.3   134  ILE134      0.1561
     66  C        196.0560   -1.4520   43.4370 C.2   134  ILE134      0.2260
     67  O        196.4790   -1.3760   44.5910 O.2   134  ILE134     -0.2867
     68  CB       194.6350   -3.5070   43.4420 C.3   134  ILE134      0.0252
     69  CG1      195.1700   -4.2760   42.2420 C.3   134  ILE134      0.0019
     70  CG2      193.2540   -3.9630   43.8210 C.3   134  ILE134      0.0019
     71  CD1      195.1250   -5.7800   42.4520 C.3   134  ILE134      0.0001
     72  N        195.7810    1.2930   45.9450 N.3   137  LEU137     -0.1231
     73  CA       195.5950    0.7640   47.2810 C.3   137  LEU137      0.1693
     74  C        196.8260    0.0440   47.8210 C.2   137  LEU137      0.2592
     75  O        196.9750   -0.1180   49.0310 O.2   137  LEU137     -0.2718
     76  CB       194.3930   -0.1710   47.2980 C.3   137  LEU137      0.0284
     77  CG       193.0800    0.4890   46.8840 C.3   137  LEU137      0.0019
     78  CD1      191.9360   -0.4600   47.1960 C.3   137  LEU137      0.0001
     79  CD2      192.8930    1.8320   47.6190 C.3   137  LEU137      0.0001
     80  N        197.6900   -0.4170   46.9270 N.am  138  LYS138     -0.1966
     81  CA       198.8930   -1.1110   47.3600 C.3   138  LYS138      0.1728
     82  C        199.6740   -0.2740   48.3510 C.2   138  LYS138      0.2616
     83  O        199.8760    0.9230   48.1440 O.2   138  LYS138     -0.2715
     84  CB       199.7910   -1.4600   46.1810 C.3   138  LYS138      0.0311
     85  CG       200.1950   -2.9240   46.1390 C.3   138  LYS138      0.0038
     86  CD       200.7230   -3.4320   47.4910 C.3   138  LYS138      0.0206
     87  CE       202.0390   -2.7700   47.8940 C.3   138  LYS138      0.1093
     88  NZ       202.5580   -3.2580   49.2140 N.3   138  LYS138     -0.1314
     89  N        200.0810   -0.9140   49.4420 N.am  139  GLY139     -0.1955
     90  CA       200.8500   -0.2420   50.4670 C.3   139  GLY139      0.1869
     91  C        200.0190    0.4920   51.4960 C.2   139  GLY139      0.2309
     92  O        200.5580    1.0360   52.4480 O.2   139  GLY139     -0.2863
     93  N        197.7480   -1.0210   53.3830 N.3   141  SER141     -0.1217
     94  CA       197.3060   -2.0120   54.3610 C.3   141  SER141      0.1889
     95  C        197.6380   -1.4580   55.7260 C.2   141  SER141      0.2288
     96  O        198.7590   -1.0060   55.9440 O.2   141  SER141     -0.2866
     97  CB       198.0330   -3.3330   54.1370 C.3   141  SER141      0.2089
     98  OG       197.4450   -3.9000   52.9740 O.3   141  SER141     -0.2183
     99  N        192.3570   -0.8130   56.9280 N.3   156  PHE156     -0.1227
    100  CA       192.3440   -1.4200   55.5920 C.3   156  PHE156      0.1736
    101  C        193.0910   -2.7530   55.6210 C.2   156  PHE156      0.2595
    102  O        194.2420   -2.8340   56.0560 O.2   156  PHE156     -0.2718
    103  CB       192.9570   -0.4590   54.5550 C.3   156  PHE156      0.0547
    104  CG       193.0290   -1.0270   53.1580 C.ar  156  PHE156     -0.0202
    105  CD1      191.9490   -1.6700   52.5950 C.ar  156  PHE156     -0.0042
    106  CD2      194.1960   -0.9310   52.4140 C.ar  156  PHE156     -0.0042
    107  CE1      192.0370   -2.2100   51.3160 C.ar  156  PHE156     -0.0003
    108  CE2      194.2850   -1.4710   51.1340 C.ar  156  PHE156     -0.0003
    109  CZ       193.2140   -2.1090   50.5860 C.ar  156  PHE156     -0.0000
    110  N        192.4540   -3.7910   55.1110 N.am  157  ARG157     -0.1966
    111  CA       193.0660   -5.1080   55.1360 C.3   157  ARG157      0.1729
    112  C        193.2950   -5.7410   53.7740 C.2   157  ARG157      0.2616
    113  O        194.3670   -6.2870   53.5260 O.2   157  ARG157     -0.2715
    114  CB       192.2370   -6.0550   56.0010 C.3   157  ARG157      0.0348
    115  CG       192.7940   -7.4480   56.0350 C.3   157  ARG157      0.0492
    116  CD       192.0530   -8.3190   56.9910 C.3   157  ARG157      0.2205
    117  NE       192.4580   -9.7110   56.8410 N.pl3 157  ARG157     -0.0865
    118  CZ       191.9920  -10.5240   55.8960 C.cat 157  ARG157      0.5346
    119  NH1      191.1060  -10.0840   55.0110 N.pl3 157  ARG157      0.1354
    120  NH2      192.3730  -11.7940   55.8640 N.pl3 157  ARG157      0.1354
    121  N        192.2720   -5.7450   52.9260 N.am  158  ALA158     -0.1963
    122  CA       192.3950   -6.3540   51.6100 C.3   158  ALA158      0.1728
    123  C        191.5050   -5.6940   50.5860 C.2   158  ALA158      0.2616
    124  O        190.4790   -5.0910   50.9130 O.2   158  ALA158     -0.2715
    125  CB       192.0840   -7.8190   51.6860 C.3   158  ALA158      0.0334
    126  N        191.9100   -5.8140   49.3340 N.am  159  ALA159     -0.1963
    127  CA       191.1570   -5.2220   48.2570 C.3   159  ALA159      0.1728
    128  C        190.2800   -6.2680   47.6060 C.2   159  ALA159      0.2616
    129  O        190.7260   -7.3810   47.3090 O.2   159  ALA159     -0.2715
    130  CB       192.0940   -4.6140   47.2420 C.3   159  ALA159      0.0334
    131  N        189.0100   -5.9200   47.4530 N.am  160  VAL160     -0.1963
    132  CA       188.0390   -6.7800   46.8010 C.3   160  VAL160      0.1727
    133  C        188.1180   -6.3920   45.3190 C.2   160  VAL160      0.2616
    134  O        187.3920   -5.5040   44.8490 O.2   160  VAL160     -0.2715
    135  CB       186.6270   -6.5120   47.3370 C.3   160  VAL160      0.0290
    136  CG1      185.6240   -7.3430   46.5850 C.3   160  VAL160      0.0023
    137  CG2      186.5590   -6.8190   48.8150 C.3   160  VAL160      0.0023
    138  N        189.0360   -7.0160   44.5940 N.am  161  CYS161     -0.1968
    139  CA       189.1990   -6.6790   43.1920 C.3   161  CYS161      0.1712
    140  C        188.8660   -7.7820   42.1940 C.2   161  CYS161      0.2296
    141  O        188.5800   -8.9260   42.5570 O.2   161  CYS161     -0.2864
    142  CB       190.6090   -6.1490   42.9410 C.3   161  CYS161      0.0983
    143  SG       191.9080   -7.3900   43.0530 S.3   161  CYS161     -0.0798
    144  N        188.0930   -5.0020   52.2680 N.3   170  ASP170     -0.1239
    145  CA       187.8200   -5.6910   53.5220 C.3   170  ASP170      0.1674
    146  C        188.6250   -4.9840   54.5930 C.2   170  ASP170      0.2266
    147  O        189.8060   -4.6590   54.3880 O.2   170  ASP170     -0.2867
    148  CB       188.2910   -7.1440   53.4640 C.3   170  ASP170      0.1410
    149  CG       187.2330   -8.0900   52.9270 C.2   170  ASP170      0.3668
    150  OD1      187.5530   -9.2930   52.8190 O.co2 170  ASP170     -0.2456
    151  OD2      186.0930   -7.6640   52.6300 O.co2 170  ASP170     -0.2456
@<TRIPOS>BOND
     1    64    65    1
     2   140   141    2
     3   140   139    1
     4    69    71    1
     5    69    68    1
     6   142   143    1
     7   142   139    1
     8    65    66    1
     9    65    68    1
    10   139   138    1
    11    66    67    2
    12    68    70    1
    13   138   133   am
    14   134   133    2
    15   133   132    1
    16    72    73    1
    17    85    84    1
    18    85    86    1
    19    84    81    1
    20   136   135    1
    21   132   135    1
    22   132   131    1
    23    77    78    1
    24    77    76    1
    25    77    79    1
    26    80    81    1
    27    80    74   am
    28   130   127    1
    29    73    76    1
    30    73    74    1
    31   129   128    2
    32   135   137    1
    33    81    82    1
    34   131   128   am
    35    86    87    1
    36   128   127    1
    37    74    75    2
    38    87    88    1
    39    83    82    2
    40   127   126    1
    41    82    89   am
    42    62    61    1
    43   126   123   am
    44    89    90    1
    45    61    63    1
    46    61    60    2
    47    90    91    1
    48   109   108   ar
    49   109   107   ar
    50   123   124    2
    51   123   122    1
    52    16    14    1
    53    59    60    1
    54    59    58    1
    55   108   106   ar
    56   107   105   ar
    57    91    92    2
    58   122   125    1
    59   122   121    1
    60    58    57    1
    61     5     2    1
    62     5     6    1
    63     2     1    1
    64     2     3    1
    65    14    11    1
    66    14    15    1
    67    13    12    2
    68   144   145    1
    69    10     3   am
    70    10    11    1
    71   106   104   ar
    72     8     7    2
    73   105   104   ar
    74   151   149   ar
    75   150   149   ar
    76     3     4    2
    77   121   112   am
    78   149   148    1
    79    11    12    1
    80    98    97    1
    81     7     6    1
    82     7     9   am
    83    12    17   am
    84   104   103    1
    85    57    54    1
    86    93    94    1
    87   148   145    1
    88   145   146    1
    89   113   112    2
    90    55    54    1
    91    55    56    2
    92   112   111    1
    93    97    94    1
    94    17    18    1
    95    54    53    1
    96    94    95    1
    97   147   146    2
    98    18    21    1
    99    18    19    1
   100   103   100    1
   101    44    42   ar
   102    44    43   ar
   103    42    40   ar
   104    21    22    1
   105   119   118    1
   106   110   111    1
   107   110   101   am
   108   111   114    1
   109    19    20    2
   110    23    22   ar
   111    23    25   ar
   112    38    37    2
   113    43    41   ar
   114   100   101    1
   115   100    99    1
   116   101   102    2
   117    95    96    2
   118    40    41   ar
   119    40    39    1
   120   120   118    1
   121   118   117    2
   122    22    24   ar
   123   114   115    1
   124   115   116    1
   125    25    27   ar
   126    39    36    1
   127    37    36    1
   128   117   116    1
   129    24    26   ar
   130    36    35    1
   131    34    32    1
   132    27    26   ar
   133    52    50   ar
   134    33    32    1
   135    32    29    1
   136    50    51   ar
   137    50    49    1
   138    31    30    2
   139    29    30    1
   140    29    28    1
   141    49    46    1
   142    48    47    2
   143    46    47    1
   144    46    45    1
