@<TRIPOS>MOLECULE
tmp/2obvA00.pdb
 92 86 0 0 0
SMALL
GASTEIGER

@<TRIPOS>ATOM
      1  N          1.0200   14.7100   41.1690 N.3    18  HIS18      -0.1227
      2  CA         0.0490   13.6790   40.9130 C.3    18  HIS18       0.1737
      3  C          0.4560   12.4660   41.7430 C.2    18  HIS18       0.2438
      4  O          1.6090   12.0780   41.6910 O.2    18  HIS18      -0.2733
      5  CB         0.0480   13.2980   39.4330 C.3    18  HIS18       0.0758
      6  CG        -1.0090   12.3090   39.0850 C.ar   18  HIS18       0.0818
      7  ND1       -0.9360   10.9840   39.4540 N.ar   18  HIS18      -0.2268
      8  CD2       -2.1980   12.4640   38.4670 C.ar   18  HIS18       0.1154
      9  CE1       -2.0240   10.3630   39.0470 C.ar   18  HIS18       0.1986
     10  NE2       -2.8010   11.2350   38.4350 N.ar   18  HIS18      -0.2212
     11  N         -0.4900   11.8710   42.5100 N.am   19  PRO19      -0.2729
     12  CA        -0.1390   10.8370   43.4920 C.3    19  PRO19       0.1401
     13  C          0.5070    9.5720   42.9210 C.2    19  PRO19       0.2269
     14  O          1.3980    9.0210   43.5650 O.2    19  PRO19      -0.2865
     15  CB        -1.4560   10.5700   44.2370 C.3    19  PRO19       0.0296
     16  CG        -2.5320   11.2140   43.4230 C.3    19  PRO19       0.0237
     17  CD        -1.9270   12.2130   42.5190 C.3    19  PRO19       0.0939
     18  N          0.0000   18.9130   42.1800 N.3   168  ASP168     -0.1239
     19  CA        -0.7910   17.9100   41.4610 C.3   168  ASP168      0.1674
     20  C         -1.4020   18.5860   40.2230 C.2   168  ASP168      0.2266
     21  O         -2.1190   19.5860   40.3380 O.2   168  ASP168     -0.2867
     22  CB        -1.8600   17.3470   42.4240 C.3   168  ASP168      0.1410
     23  CG        -2.7590   16.2730   41.8090 C.2   168  ASP168      0.3668
     24  OD1       -2.5750   15.8520   40.6480 O.co2 168  ASP168     -0.2456
     25  OD2       -3.6740   15.8450   42.5390 O.co2 168  ASP168     -0.2456
     26  N         -2.6340   17.6040   35.8000 N.3   170  LYS170     -0.1245
     27  CA        -2.8280   16.7030   34.6570 C.3   170  LYS170      0.1561
     28  C         -3.0210   17.5260   33.3910 C.2   170  LYS170      0.2260
     29  O         -3.6250   18.5970   33.4350 O.2   170  LYS170     -0.2867
     30  CB        -4.0460   15.8110   34.8620 C.3   170  LYS170      0.0271
     31  CG        -3.9240   14.8720   36.0360 C.3   170  LYS170      0.0035
     32  CD        -5.0700   13.8820   36.0990 C.3   170  LYS170      0.0206
     33  CE        -4.8660   12.6860   35.1620 C.3   170  LYS170      0.1093
     34  NZ        -5.8700   11.5850   35.3970 N.3   170  LYS170     -0.1314
     35  N         -5.9110   20.4000   34.0990 N.3   195  SER195     -0.1217
     36  CA        -6.4330   20.4540   35.4660 C.3   195  SER195      0.1889
     37  C         -5.2530   20.5630   36.4420 C.2   195  SER195      0.2288
     38  O         -4.3260   19.7440   36.4130 O.2   195  SER195     -0.2866
     39  CB        -7.2670   19.2050   35.7850 C.3   195  SER195      0.2089
     40  OG        -8.5300   19.2250   35.1280 O.3   195  SER195     -0.2183
     41  N        -13.0520   21.0390   35.9090 N.3   236  SER236     -0.1217
     42  CA       -13.7700   20.6460   37.1180 C.3   236  SER236      0.1889
     43  C        -14.3830   21.8480   37.8360 C.2   236  SER236      0.2288
     44  O        -15.3160   21.6870   38.6070 O.2   236  SER236     -0.2866
     45  CB       -12.8520   19.8590   38.0690 C.3   236  SER236      0.2089
     46  OG       -11.8250   20.6640   38.6090 O.3   236  SER236     -0.2183
     47  N        -13.1960   23.3380   40.2520 N.3   238  ARG238     -0.1231
     48  CA       -12.6050   23.3890   41.5950 C.3   238  ARG238      0.1694
     49  C        -11.7160   22.1650   41.8600 C.2   238  ARG238      0.2592
     50  O        -12.1720   21.0230   41.7660 O.2   238  ARG238     -0.2718
     51  CB       -13.7110   23.4660   42.6530 C.3   238  ARG238      0.0321
     52  CG       -13.2160   23.7220   44.0420 C.3   238  ARG238      0.0489
     53  CD       -14.2950   23.6190   45.0560 C.3   238  ARG238      0.2205
     54  NE       -13.7160   23.5470   46.3990 N.pl3 238  ARG238     -0.0865
     55  CZ       -13.3660   24.5900   47.1360 C.cat 238  ARG238      0.5346
     56  NH1      -13.5580   25.8260   46.7030 N.pl3 238  ARG238      0.1354
     57  NH2      -12.8460   24.3880   48.3360 N.pl3 238  ARG238      0.1354
     58  N        -10.4650   22.4330   42.2110 N.am  239  PHE239     -0.1976
     59  CA        -9.4360   21.4270   42.4140 C.3   239  PHE239      0.1639
     60  C         -8.5590   21.9350   43.5810 C.2   239  PHE239      0.2290
     61  O         -7.3470   22.1660   43.4520 O.2   239  PHE239     -0.2864
     62  CB        -8.6690   21.2420   41.0840 C.3   239  PHE239      0.0560
     63  CG        -7.7030   20.0860   41.0330 C.ar  239  PHE239     -0.0200
     64  CD1       -7.3480   19.3520   42.1430 C.ar  239  PHE239     -0.0042
     65  CD2       -7.0700   19.7910   39.8300 C.ar  239  PHE239     -0.0042
     66  CE1       -6.4220   18.3180   42.0480 C.ar  239  PHE239     -0.0003
     67  CE2       -6.1440   18.7610   39.7330 C.ar  239  PHE239     -0.0003
     68  CZ        -5.8110   18.0280   40.8550 C.ar  239  PHE239     -0.0000
     69  N         -8.6970   20.2540   46.8380 N.3   241  ILE241     -0.1245
     70  CA        -8.2450   18.9580   47.3370 C.3   241  ILE241      0.1561
     71  C         -7.5210   18.2700   46.1930 C.2   241  ILE241      0.2260
     72  O         -8.0640   18.1380   45.0850 O.2   241  ILE241     -0.2867
     73  CB        -9.4200   18.0910   47.8390 C.3   241  ILE241      0.0252
     74  CG1      -10.0760   18.7600   49.0580 C.3   241  ILE241      0.0019
     75  CG2       -8.9430   16.6560   48.1710 C.3   241  ILE241      0.0019
     76  CD1      -11.4570   18.2340   49.3870 C.3   241  ILE241      0.0001
     77  N         -3.4130   15.9500   45.2950 N.3   243  GLY243     -0.1225
     78  CA        -2.3600   15.0840   45.7930 C.3   243  GLY243      0.1811
     79  C         -2.9460   13.7770   46.3130 C.2   243  GLY243      0.2280
     80  O         -4.0320   13.3570   45.8860 O.2   243  GLY243     -0.2866
     81  N         -6.6330   13.6500   47.4180 N.3   246  GLY246     -0.1210
     82  CA        -7.7090   13.5210   46.4300 C.3   246  GLY246      0.1956
     83  C         -7.8520   12.1420   45.7890 C.2   246  GLY246      0.2611
     84  O         -8.9480   11.7530   45.3390 O.2   246  GLY246     -0.2717
     85  N         -6.7500   11.4020   45.7460 N.am  247  ASP247     -0.1973
     86  CA        -6.6770   10.1750   44.9430 C.3   247  ASP247      0.1709
     87  C         -5.4950    9.3540   45.4520 C.2   247  ASP247      0.2293
     88  O         -4.3830    9.8860   45.5560 O.2   247  ASP247     -0.2864
     89  CB        -6.5220   10.6030   43.4640 C.3   247  ASP247      0.1436
     90  CG        -6.4820    9.4460   42.4880 C.2   247  ASP247      0.3671
     91  OD1       -7.2700    8.4930   42.6360 O.co2 247  ASP247     -0.2456
     92  OD2       -5.6680    9.5210   41.5270 O.co2 247  ASP247     -0.2456
@<TRIPOS>BOND
     1    28    29    2
     2    28    27    1
     3    35    36    1
     4    27    30    1
     5    27    26    1
     6    30    31    1
     7    40    39    1
     8    33    34    1
     9    33    32    1
    10    36    39    1
    11    36    37    1
    12    41    42    1
    13    31    32    1
    14    38    37    2
    15    42    43    1
    16    42    45    1
    17    43    44    2
    18    45    46    1
    19    10     8   ar
    20    10     9   ar
    21     8     6   ar
    22     9     7   ar
    23     6     5    1
    24     6     7   ar
    25     5     2    1
    26    67    65   ar
    27    67    68   ar
    28    65    63   ar
    29    20    21    2
    30    20    19    1
    31    47    48    1
    32    24    23   ar
    33    68    66   ar
    34     2     1    1
    35     2     3    1
    36    63    62    1
    37    63    64   ar
    38    62    59    1
    39    19    18    1
    40    19    22    1
    41    92    90   ar
    42    48    49    1
    43    48    51    1
    44     4     3    2
    45     3    11   am
    46    50    49    2
    47    23    22    1
    48    23    25   ar
    49    49    58   am
    50    66    64   ar
    51    58    59    1
    52    59    60    1
    53    90    91   ar
    54    90    89    1
    55    11    17    1
    56    11    12    1
    57    17    16    1
    58    51    52    1
    59    13    12    1
    60    13    14    2
    61    16    15    1
    62    61    60    2
    63    89    86    1
    64    12    15    1
    65    52    53    1
    66    86    87    1
    67    86    85    1
    68    53    54    1
    69    72    71    2
    70    77    78    1
    71    84    83    2
    72    87    88    2
    73    85    83   am
    74    83    82    1
    75    78    79    1
    76    80    79    2
    77    71    70    1
    78    54    55    2
    79    82    81    1
    80    56    55    1
    81    69    70    1
    82    55    57    1
    83    70    73    1
    84    73    75    1
    85    73    74    1
    86    74    76    1
