@<TRIPOS>MOLECULE
tmp/2obxA00.pdb
 117 117 0 0 0
SMALL
GASTEIGER

@<TRIPOS>ATOM
      1  N         28.2710   16.0810   25.6380 N.3    14  ALA14      -0.1245
      2  CA        29.1750   15.3960   26.5570 C.3    14  ALA14       0.1562
      3  C         30.6080   15.7110   26.1310 C.2    14  ALA14       0.2260
      4  O         30.8290   16.2350   25.0400 O.2    14  ALA14      -0.2867
      5  CB        28.9260   13.8930   26.5200 C.3    14  ALA14       0.0290
      6  N         33.3180   13.2580   26.5220 N.3    16  TRP16      -0.1227
      7  CA        34.0580   12.0640   26.1100 C.3    16  TRP16       0.1737
      8  C         34.0250   12.1050   24.5870 C.2    16  TRP16       0.2595
      9  O         32.9520   12.2790   24.0010 O.2    16  TRP16      -0.2718
     10  CB        33.3620   10.7770   26.5610 C.3    16  TRP16       0.0564
     11  CG        33.7110   10.3080   27.9360 C.ar   16  TRP16       0.0003
     12  CD1       33.4140   10.9280   29.1150 C.ar   16  TRP16       0.0946
     13  CD2       34.3870    9.0910   28.2800 C.ar   16  TRP16       0.0152
     14  NE1       33.8590   10.1730   30.1690 N.ar   16  TRP16      -0.2442
     15  CE2       34.4620    9.0400   29.6870 C.ar   16  TRP16       0.0810
     16  CE3       34.9350    8.0360   27.5330 C.ar   16  TRP16       0.0012
     17  CZ2       35.0670    7.9700   30.3720 C.ar   16  TRP16       0.0191
     18  CZ3       35.5370    6.9710   28.2130 C.ar   16  TRP16       0.0001
     19  CH2       35.5950    6.9500   29.6210 C.ar   16  TRP16       0.0015
     20  N         35.1790   11.9390   23.9450 N.am   17  HIS17      -0.1975
     21  CA        35.2270   11.9760   22.4870 C.3    17  HIS17       0.1656
     22  C         34.7460   13.3550   22.0330 C.2    17  HIS17       0.2291
     23  O         34.0180   13.4720   21.0450 O.2    17  HIS17      -0.2864
     24  CB        34.2930   10.9240   21.8760 C.3    17  HIS17       0.0771
     25  CG        34.5070    9.5330   22.3870 C.ar   17  HIS17       0.0820
     26  ND1       35.6480    8.8070   22.1200 N.ar   17  HIS17      -0.2267
     27  CD2       33.7080    8.7250   23.1230 C.ar   17  HIS17       0.1154
     28  CE1       35.5410    7.6100   22.6690 C.ar   17  HIS17       0.1986
     29  NE2       34.3730    7.5340   23.2820 N.ar   17  HIS17      -0.2212
     30  N         30.4260   16.4360   31.6920 N.3    48  PRO48      -0.2102
     31  CA        31.4350   15.3670   31.7420 C.3    48  PRO48       0.1504
     32  C         31.1800   14.1810   30.7990 C.2    48  PRO48       0.2576
     33  O         31.9610   13.9390   29.8730 O.2    48  PRO48      -0.2718
     34  CB        31.4420   14.9680   33.2190 C.3    48  PRO48       0.0282
     35  CG        31.0780   16.2410   33.9110 C.3    48  PRO48       0.0208
     36  CD        29.9550   16.7750   33.0460 C.3    48  PRO48       0.0893
     37  N         30.0910   13.4510   31.0340 N.am   49  GLY49      -0.1943
     38  CA        29.7670   12.3100   30.1890 C.3    49  GLY49       0.2014
     39  C         28.2750   12.1330   29.9520 C.2    49  GLY49       0.2639
     40  O         27.4530   12.7280   30.6510 O.2    49  GLY49      -0.2714
     41  N         27.9330   11.2980   28.9730 N.am   50  ALA50      -0.1963
     42  CA        26.5410   11.0310   28.6040 C.3    50  ALA50       0.1728
     43  C         25.6220   10.8350   29.7970 C.2    50  ALA50       0.2616
     44  O         24.4780   11.2870   29.7960 O.2    50  ALA50      -0.2715
     45  CB        26.4670    9.8040   27.6880 C.3    50  ALA50       0.0334
     46  N         26.1260   10.1730   30.8280 N.am   51  TYR51      -0.1960
     47  CA        25.3150    9.9240   32.0150 C.3    51  TYR51       0.1771
     48  C         24.8260   11.2180   32.6740 C.2    51  TYR51       0.2619
     49  O         23.7660   11.2300   33.3060 O.2    51  TYR51      -0.2715
     50  CB        26.1010    9.0840   33.0310 C.3    51  TYR51       0.0574
     51  CG        25.2280    8.3620   34.0390 C.ar   51  TYR51      -0.0198
     52  CD1       24.3860    7.3260   33.6430 C.ar   51  TYR51      -0.0009
     53  CD2       25.2740    8.6880   35.3890 C.ar   51  TYR51      -0.0009
     54  CE1       23.6170    6.6260   34.5730 C.ar   51  TYR51       0.0417
     55  CE2       24.5090    8.0010   36.3220 C.ar   51  TYR51       0.0417
     56  CZ        23.6860    6.9670   35.9100 C.ar   51  TYR51       0.1957
     57  OH        22.9550    6.2560   36.8430 O.3    51  TYR51      -0.2866
     58  N         25.5890   12.3000   32.5160 N.am   52  GLU52      -0.1977
     59  CA        25.2210   13.5890   33.1110 C.3    52  GLU52       0.1602
     60  C         24.2070   14.4030   32.3030 C.2    52  GLU52       0.2287
     61  O         23.6750   15.3970   32.8000 O.2    52  GLU52      -0.2864
     62  CB        26.4680   14.4630   33.3400 C.3    52  GLU52       0.0415
     63  CG        27.3160   14.1070   34.5530 C.3    52  GLU52       0.1163
     64  CD        28.0860   12.8120   34.3840 C.2    52  GLU52       0.3649
     65  OE1       28.9820   12.7310   33.5010 O.co2  52  GLU52      -0.2457
     66  OE2       27.7820   11.8750   35.1410 O.co2  52  GLU52      -0.2457
     67  N         26.0810   12.9430   22.7290 N.3    73  ALA73      -0.1231
     68  CA        27.2150   12.2430   23.3090 C.3    73  ALA73       0.1694
     69  C         27.5450   11.0400   22.4300 C.2    73  ALA73       0.2592
     70  O         26.7420   10.6350   21.5920 O.2    73  ALA73      -0.2718
     71  CB        26.8640   11.7770   24.7140 C.3    73  ALA73       0.0304
     72  N         28.7280   10.4750   22.6320 N.am   74  PHE74      -0.1962
     73  CA        29.1730    9.3210   21.8700 C.3    74  PHE74       0.1771
     74  C         29.4870    8.1960   22.8650 C.2    74  PHE74       0.2619
     75  O         30.5940    8.1090   23.3860 O.2    74  PHE74      -0.2715
     76  CB        30.4230    9.6950   21.0670 C.3    74  PHE74       0.0574
     77  CG        30.7990    8.6980   19.9970 C.ar   74  PHE74      -0.0200
     78  CD1       32.1420    8.4290   19.7280 C.ar   74  PHE74      -0.0042
     79  CD2       29.8220    8.0530   19.2410 C.ar   74  PHE74      -0.0042
     80  CE1       32.5140    7.5340   18.7230 C.ar   74  PHE74      -0.0003
     81  CE2       30.1810    7.1580   18.2340 C.ar   74  PHE74      -0.0003
     82  CZ        31.5360    6.8990   17.9760 C.ar   74  PHE74      -0.0000
     83  N         28.5040    7.3450   23.1330 N.am   75  VAL75      -0.1963
     84  CA        28.6790    6.2340   24.0670 C.3    75  VAL75       0.1727
     85  C         29.1820    4.9820   23.3500 C.2    75  VAL75       0.2616
     86  O         28.4060    4.2880   22.6870 O.2    75  VAL75      -0.2715
     87  CB        27.3520    5.8900   24.7630 C.3    75  VAL75       0.0290
     88  CG1       27.5880    4.8620   25.8720 C.3    75  VAL75       0.0023
     89  CG2       26.7150    7.1560   25.2960 C.3    75  VAL75       0.0023
     90  N         30.4720    4.6860   23.5040 N.am   76  VAL76      -0.1977
     91  CA        31.0760    3.5300   22.8460 C.3    76  VAL76       0.1596
     92  C         31.4450    2.4020   23.7860 C.2    76  VAL76       0.2287
     93  O         31.3800    2.5360   25.0060 O.2    76  VAL76      -0.2864
     94  CB        32.3610    3.9070   22.0960 C.3    76  VAL76       0.0276
     95  CG1       32.1040    5.0800   21.1650 C.3    76  VAL76       0.0022
     96  CG2       33.4550    4.2250   23.0900 C.3    76  VAL76       0.0022
     97  N         34.4310    0.4140   24.9400 N.3    78  GLY78      -0.1225
     98  CA        35.8820    0.4740   24.9700 C.3    78  GLY78       0.1811
     99  C         36.5810   -0.8720   25.0200 C.2    78  GLY78       0.2280
    100  O         37.8010   -0.9350   24.8850 O.2    78  GLY78      -0.2866
    101  N         28.9650   -0.8360   27.9880 N.3    83  HIS83      -0.1241
    102  CA        28.4430    0.5080   27.8460 C.3    83  HIS83       0.1621
    103  C         26.9230    0.5140   27.7270 C.2    83  HIS83       0.2264
    104  O         26.3070    1.5750   27.7430 O.2    83  HIS83      -0.2867
    105  CB        29.0510    1.1490   26.6060 C.3    83  HIS83       0.0745
    106  CG        28.7190    0.4240   25.3380 C.ar   83  HIS83       0.0817
    107  ND1       28.9000   -0.9350   25.1860 N.ar   83  HIS83      -0.2268
    108  CD2       28.1940    0.8650   24.1720 C.ar   83  HIS83       0.1154
    109  CE1       28.4970   -1.3000   23.9820 C.ar   83  HIS83       0.1986
    110  NE2       28.0640   -0.2270   23.3470 N.ar   83  HIS83      -0.2212
    111  N         24.6030    2.2870   30.7110 N.3    86  VAL86      -0.1245
    112  CA        24.6380    3.7490   30.6970 C.3    86  VAL86       0.1561
    113  C         23.8590    4.2830   29.5040 C.2    86  VAL86       0.2260
    114  O         22.9580    5.1130   29.6700 O.2    86  VAL86      -0.2867
    115  CB        26.0860    4.2810   30.6450 C.3    86  VAL86       0.0252
    116  CG1       26.0980    5.7890   30.4510 C.3    86  VAL86       0.0019
    117  CG2       26.7940    3.9180   31.9420 C.3    86  VAL86       0.0019
@<TRIPOS>BOND
     1    82    81   ar
     2    82    80   ar
     3    81    79   ar
     4    80    78   ar
     5    79    77   ar
     6    78    77   ar
     7    77    76    1
     8    23    22    2
     9    76    73    1
    10    95    94    1
    11    70    69    2
    12    73    72    1
    13    73    74    1
    14    24    25    1
    15    24    21    1
    16    22    21    1
    17    94    91    1
    18    94    96    1
    19    26    25   ar
    20    26    28   ar
    21    25    27   ar
    22    69    72   am
    23    69    68    1
    24    21    20    1
    25    28    29   ar
    26    86    85    2
    27    67    68    1
    28    91    90    1
    29    91    92    1
    30    74    83   am
    31    74    75    2
    32    27    29   ar
    33    83    84    1
    34    68    71    1
    35   110   109   ar
    36   110   108   ar
    37    85    90   am
    38    85    84    1
    39    92    93    2
    40    20     8   am
    41   109   107   ar
    42     9     8    2
    43    84    87    1
    44   108   106   ar
    45     8     7    1
    46    87    89    1
    47    87    88    1
    48   100    99    2
    49    97    98    1
    50    98    99    1
    51     4     3    2
    52   107   106   ar
    53   106   105    1
    54     1     2    1
    55     7     6    1
    56     7    10    1
    57     3     2    1
    58     5     2    1
    59    10    11    1
    60   105   102    1
    61    16    18   ar
    62    16    13   ar
    63    45    42    1
    64   103   104    2
    65   103   102    1
    66   102   101    1
    67    11    13   ar
    68    11    12   ar
    69    18    19   ar
    70    13    15   ar
    71    42    41    1
    72    42    43    1
    73    41    39   am
    74    12    14   ar
    75   113   114    2
    76   113   112    1
    77    19    17   ar
    78    15    14   ar
    79    15    17   ar
    80    44    43    2
    81    43    46   am
    82    33    32    2
    83    39    38    1
    84    39    40    2
    85    38    37    1
    86   116   115    1
    87   115   112    1
    88   115   117    1
    89   112   111    1
    90    32    37   am
    91    32    31    1
    92    46    47    1
    93    30    31    1
    94    30    36    1
    95    31    34    1
    96    47    48    1
    97    47    50    1
    98    60    61    2
    99    60    59    1
   100    58    48   am
   101    58    59    1
   102    48    49    2
   103    50    51    1
   104    36    35    1
   105    59    62    1
   106    34    35    1
   107    62    63    1
   108    65    64   ar
   109    52    51   ar
   110    52    54   ar
   111    51    53   ar
   112    64    63    1
   113    64    66   ar
   114    54    56   ar
   115    53    55   ar
   116    56    55   ar
   117    56    57    1
