@<TRIPOS>MOLECULE
tmp/2oc1A00.pdb
 187 182 0 0 0
SMALL
GASTEIGER

@<TRIPOS>ATOM
      1  N        209.5970   -6.5120   53.4090 N.3    42  THR42      -0.1203
      2  CA       208.9030   -7.1690   52.3150 C.3    42  THR42       0.1994
      3  C        207.7410   -6.3740   51.7350 C.2    42  THR42       0.2618
      4  O        207.3810   -6.5740   50.5800 O.2    42  THR42      -0.2717
      5  CB       208.3730   -8.5480   52.7550 C.3    42  THR42       0.1784
      6  OG1      207.2610   -8.3800   53.6500 O.3    42  THR42      -0.2211
      7  CG2      209.4710   -9.3300   53.4740 C.3    42  THR42       0.0376
      8  N        207.1250   -5.5060   52.5310 N.am   43  GLN43      -0.1965
      9  CA       205.9870   -4.7350   52.0430 C.3    43  GLN43       0.1733
     10  C        205.7180   -3.4880   52.8630 C.2    43  GLN43       0.2617
     11  O        206.1960   -3.3650   53.9910 O.2    43  GLN43      -0.2715
     12  CB       204.7350   -5.6080   52.0380 C.3    43  GLN43       0.0408
     13  CG       204.3690   -6.1430   53.4000 C.3    43  GLN43       0.0908
     14  CD       203.1930   -7.0780   53.3510 C.2    43  GLN43       0.2608
     15  OE1      202.1200   -6.7320   52.8360 O.2    43  GLN43      -0.2717
     16  NE2      203.3740   -8.2740   53.8980 N.am   43  GLN43      -0.0878
     17  N        204.9390   -2.5760   52.2930 N.am   44  THR44      -0.1937
     18  CA       204.5930   -1.3380   52.9640 C.3    44  THR44       0.2028
     19  C        203.0830   -1.1600   52.9980 C.2    44  THR44       0.2642
     20  O        202.3830   -1.4400   52.0240 O.2    44  THR44      -0.2714
     21  CB       205.2570   -0.1340   52.3080 C.3    44  THR44       0.1808
     22  OG1      204.8700    1.0530   52.9990 O.3    44  THR44      -0.2208
     23  CG2      204.8410   -0.0160   50.8900 C.3    44  THR44       0.0379
     24  N        202.5960   -0.6950   54.1410 N.am   45  PHE45      -0.1973
     25  CA       201.1750   -0.5130   54.3820 C.3    45  PHE45       0.1639
     26  C        200.9480    0.5800   55.4220 C.2    45  PHE45       0.2290
     27  O        201.8400    1.3890   55.6830 O.2    45  PHE45      -0.2864
     28  CB       200.5580   -1.8460   54.8370 C.3    45  PHE45       0.0560
     29  CG       201.3850   -2.5900   55.8580 C.ar   45  PHE45      -0.0200
     30  CD1      202.6300   -3.1110   55.5260 C.ar   45  PHE45      -0.0042
     31  CD2      200.9280   -2.7480   57.1590 C.ar   45  PHE45      -0.0042
     32  CE1      203.4050   -3.7690   56.4690 C.ar   45  PHE45      -0.0003
     33  CE2      201.7020   -3.4090   58.1120 C.ar   45  PHE45      -0.0003
     34  CZ       202.9390   -3.9160   57.7650 C.ar   45  PHE45      -0.0000
     35  N        197.2270   -4.2460   60.2420 N.3    57  VAL57      -0.1245
     36  CA       196.8150   -5.5460   59.7770 C.3    57  VAL57       0.1561
     37  C        197.8920   -6.6410   60.0510 C.2    57  VAL57       0.2260
     38  O        199.0930   -6.4490   59.8180 O.2    57  VAL57      -0.2867
     39  CB       196.4100   -5.4030   58.2870 C.3    57  VAL57       0.0252
     40  CG1      197.6290   -5.3880   57.3880 C.3    57  VAL57       0.0019
     41  CG2      195.4090   -6.4380   57.9070 C.3    57  VAL57       0.0019
     42  N        198.3190   -9.4840   58.5470 N.3    59  HIS59      -0.1226
     43  CA       198.9030   -9.9760   57.3030 C.3    59  HIS59       0.1752
     44  C        199.9970   -9.0680   56.7500 C.2    59  HIS59       0.2596
     45  O        200.5730   -9.3450   55.6990 O.2    59  HIS59      -0.2718
     46  CB       197.8370  -10.3040   56.2320 C.3    59  HIS59       0.0759
     47  CG       197.0960   -9.1200   55.6830 C.ar   59  HIS59       0.0818
     48  ND1      195.7220   -9.0120   55.7520 N.ar   59  HIS59      -0.2268
     49  CD2      197.5220   -8.0270   55.0030 C.ar   59  HIS59       0.1154
     50  CE1      195.3340   -7.9050   55.1410 C.ar   59  HIS59       0.1986
     51  NE2      196.4060   -7.2910   54.6780 N.ar   59  HIS59      -0.2212
     52  N        200.2950   -7.9950   57.4750 N.am   60  GLY60      -0.1957
     53  CA       201.3260   -7.0840   57.0380 C.3    60  GLY60       0.1869
     54  C        202.4450   -7.0270   58.0470 C.2    60  GLY60       0.2309
     55  O        203.6120   -7.1580   57.6840 O.2    60  GLY60      -0.2863
     56  N        196.9940    5.5140   51.3920 N.3   111  ARG111     -0.1231
     57  CA       198.3820    5.8480   51.6810 C.3   111  ARG111      0.1694
     58  C        198.8510    7.0490   50.8880 C.2   111  ARG111      0.2592
     59  O        199.9690    7.5070   51.0660 O.2   111  ARG111     -0.2718
     60  CB       199.2820    4.6450   51.3910 C.3   111  ARG111      0.0321
     61  CG       200.0000    4.7060   50.0700 C.3   111  ARG111      0.0489
     62  CD       200.4680    3.3480   49.6290 C.3   111  ARG111      0.2205
     63  NE       201.2020    2.6510   50.6760 N.pl3 111  ARG111     -0.0865
     64  CZ       202.3730    3.0370   51.1670 C.cat 111  ARG111      0.5346
     65  NH1      202.9630    4.1370   50.7160 N.pl3 111  ARG111      0.1354
     66  NH2      202.9710    2.2890   52.0800 N.pl3 111  ARG111      0.1354
     67  N        198.0230    7.5080   49.9590 N.am  112  HIS112     -0.1976
     68  CA       198.3490    8.6670   49.1340 C.3   112  HIS112      0.1656
     69  C        197.6940    9.8950   49.7310 C.2   112  HIS112      0.2291
     70  O        197.7580   10.9860   49.1620 O.2   112  HIS112     -0.2864
     71  CB       197.8420    8.4490   47.7190 C.3   112  HIS112      0.0771
     72  CG       198.2130    7.1150   47.1640 C.ar  112  HIS112      0.0820
     73  ND1      199.5130    6.7770   46.8560 N.ar  112  HIS112     -0.2267
     74  CD2      197.4680    6.0110   46.9250 C.ar  112  HIS112      0.1154
     75  CE1      199.5540    5.5190   46.4510 C.ar  112  HIS112      0.1986
     76  NE2      198.3270    5.0320   46.4860 N.ar  112  HIS112     -0.2212
     77  N        182.0250   -4.6990   55.2620 N.3   125  ARG125     -0.1245
     78  CA       182.0240   -4.3910   53.8370 C.3   125  ARG125      0.1563
     79  C        181.4280   -3.0440   53.5680 C.2   125  ARG125      0.2260
     80  O        180.5860   -2.5520   54.3150 O.2   125  ARG125     -0.2867
     81  CB       181.2400   -5.4210   53.0340 C.3   125  ARG125      0.0307
     82  CG       181.9460   -6.7360   52.8170 C.3   125  ARG125      0.0489
     83  CD       183.0420   -6.6270   51.7900 C.3   125  ARG125      0.2205
     84  NE       183.5200   -7.9510   51.3900 N.pl3 125  ARG125     -0.0865
     85  CZ       183.0350   -8.6530   50.3660 C.cat 125  ARG125      0.5346
     86  NH1      182.0440   -8.1720   49.6130 N.pl3 125  ARG125      0.1354
     87  NH2      183.5590   -9.8380   50.0780 N.pl3 125  ARG125      0.1354
     88  N        192.8470   -1.6580   41.5330 N.3   134  ILE134     -0.1231
     89  CA       193.3870   -2.2070   42.7660 C.3   134  ILE134      0.1692
     90  C        194.7820   -1.6800   43.0940 C.2   134  ILE134      0.2592
     91  O        195.1110   -1.4970   44.2600 O.2   134  ILE134     -0.2718
     92  CB       193.3740   -3.7530   42.7750 C.3   134  ILE134      0.0266
     93  CG1      193.7550   -4.2570   44.1600 C.3   134  ILE134      0.0019
     94  CG2      194.3280   -4.3140   41.7340 C.3   134  ILE134      0.0020
     95  CD1      193.8820   -5.7390   44.2370 C.3   134  ILE134      0.0001
     96  N        195.5800   -1.3780   42.0770 N.am  135  SER135     -0.1952
     97  CA       196.9290   -0.8610   42.3010 C.3   135  SER135      0.1924
     98  C        196.8930    0.4380   43.0990 C.2   135  SER135      0.2314
     99  O        197.8700    0.8030   43.7620 O.2   135  SER135     -0.2863
    100  CB       197.6400   -0.6150   40.9750 C.3   135  SER135      0.2116
    101  OG       196.9310    0.3350   40.1960 O.3   135  SER135     -0.2180
    102  N        194.8130    1.0940   45.6550 N.3   137  LEU137     -0.1231
    103  CA       194.6390    0.7630   47.0610 C.3   137  LEU137      0.1693
    104  C        195.7650   -0.0890   47.6360 C.2   137  LEU137      0.2592
    105  O        195.7790   -0.3830   48.8250 O.2   137  LEU137     -0.2718
    106  CB       193.2930    0.0730   47.2790 C.3   137  LEU137      0.0284
    107  CG       192.0490    0.8970   46.9300 C.3   137  LEU137      0.0019
    108  CD1      190.8280    0.0160   47.0730 C.3   137  LEU137      0.0001
    109  CD2      191.9340    2.1390   47.8110 C.3   137  LEU137      0.0001
    110  N        196.7060   -0.5120   46.8110 N.am  138  LYS138     -0.1966
    111  CA       197.7980   -1.3040   47.3390 C.3   138  LYS138      0.1728
    112  C        198.5960   -0.4590   48.3100 C.2   138  LYS138      0.2617
    113  O        198.8480    0.7200   48.0700 O.2   138  LYS138     -0.2715
    114  CB       198.6950   -1.8390   46.2290 C.3   138  LYS138      0.0311
    115  CG       198.0860   -3.0030   45.4780 C.3   138  LYS138      0.0038
    116  CD       199.0200   -4.2070   45.4480 C.3   138  LYS138      0.0206
    117  CE       198.3770   -5.3890   44.7320 C.3   138  LYS138      0.1093
    118  NZ       198.0340   -5.0850   43.3050 N.3   138  LYS138     -0.1314
    119  N        198.9900   -1.0790   49.4110 N.am  139  GLY139     -0.1940
    120  CA       199.7440   -0.3750   50.4250 C.3   139  GLY139      0.2014
    121  C        198.8820    0.4050   51.4000 C.2   139  GLY139      0.2640
    122  O        199.4170    1.0580   52.2770 O.2   139  GLY139     -0.2714
    123  N        197.5610    0.3410   51.2620 N.am  140  SER140     -0.1935
    124  CA       196.6730    1.0540   52.1750 C.3   140  SER140      0.2055
    125  C        196.0540    0.1910   53.2880 C.2   140  SER140      0.2643
    126  O        195.2350    0.6740   54.0630 O.2   140  SER140     -0.2714
    127  CB       195.5840    1.7940   51.3980 C.3   140  SER140      0.2130
    128  OG       196.1410    2.9120   50.7200 O.3   140  SER140     -0.2179
    129  N        196.4700   -1.0720   53.3860 N.am  141  SER141     -0.1949
    130  CA       195.9710   -1.9870   54.4150 C.3   141  SER141      0.1924
    131  C        196.3840   -1.4570   55.7730 C.2   141  SER141      0.2314
    132  O        197.5500   -1.1280   55.9720 O.2   141  SER141     -0.2863
    133  CB       196.5650   -3.3820   54.2300 C.3   141  SER141      0.2116
    134  OG       196.0640   -4.0150   53.0610 O.3   141  SER141     -0.2180
    135  N        190.9890   -0.7120   56.9590 N.3   156  PHE156     -0.1227
    136  CA       190.9980   -1.3620   55.6380 C.3   156  PHE156      0.1736
    137  C        191.8080   -2.6680   55.6590 C.2   156  PHE156      0.2595
    138  O        192.9470   -2.6880   56.1100 O.2   156  PHE156     -0.2718
    139  CB       191.5550   -0.3880   54.5850 C.3   156  PHE156      0.0547
    140  CG       191.6200   -0.9530   53.1880 C.ar  156  PHE156     -0.0202
    141  CD1      190.5310   -1.5990   52.6330 C.ar  156  PHE156     -0.0042
    142  CD2      192.7850   -0.8450   52.4370 C.ar  156  PHE156     -0.0042
    143  CE1      190.6030   -2.1320   51.3560 C.ar  156  PHE156     -0.0003
    144  CE2      192.8680   -1.3760   51.1560 C.ar  156  PHE156     -0.0003
    145  CZ       191.7790   -2.0190   50.6170 C.ar  156  PHE156     -0.0000
    146  N        191.2360   -3.7490   55.1410 N.am  157  ARG157     -0.1966
    147  CA       191.9280   -5.0290   55.1550 C.3   157  ARG157      0.1729
    148  C        192.1930   -5.6610   53.7940 C.2   157  ARG157      0.2616
    149  O        193.3030   -6.1360   53.5290 O.2   157  ARG157     -0.2715
    150  CB       191.1430   -6.0200   56.0010 C.3   157  ARG157      0.0348
    151  CG       191.9230   -7.2720   56.3300 C.3   157  ARG157      0.0492
    152  CD       191.0640   -8.2280   57.1030 C.3   157  ARG157      0.2205
    153  NE       190.3360   -9.1220   56.2180 N.pl3 157  ARG157     -0.0865
    154  CZ       190.8110  -10.2900   55.7970 C.cat 157  ARG157      0.5346
    155  NH1      192.0150  -10.7010   56.1870 N.pl3 157  ARG157      0.1354
    156  NH2      190.0810  -11.0460   54.9800 N.pl3 157  ARG157      0.1354
    157  N        191.1610   -5.7310   52.9600 N.am  158  ALA158     -0.1963
    158  CA       191.2760   -6.3340   51.6410 C.3   158  ALA158      0.1728
    159  C        190.3100   -5.6590   50.6830 C.2   158  ALA158      0.2616
    160  O        189.3280   -5.0450   51.1090 O.2   158  ALA158     -0.2715
    161  CB       190.9740   -7.8160   51.7230 C.3   158  ALA158      0.0334
    162  N        190.5970   -5.7580   49.3900 N.am  159  ALA159     -0.1963
    163  CA       189.7470   -5.1490   48.3830 C.3   159  ALA159      0.1728
    164  C        189.0170   -6.2130   47.5920 C.2   159  ALA159      0.2616
    165  O        189.5470   -7.2970   47.3610 O.2   159  ALA159     -0.2715
    166  CB       190.5780   -4.2900   47.4540 C.3   159  ALA159      0.0334
    167  N        187.7950   -5.8950   47.1820 N.am  160  VAL160     -0.1963
    168  CA       186.9730   -6.7990   46.3840 C.3   160  VAL160      0.1727
    169  C        187.1400   -6.4000   44.9090 C.2   160  VAL160      0.2616
    170  O        186.5110   -5.4470   44.4320 O.2   160  VAL160     -0.2715
    171  CB       185.5020   -6.6900   46.7930 C.3   160  VAL160      0.0290
    172  CG1      184.6720   -7.6830   46.0200 C.3   160  VAL160      0.0023
    173  CG2      185.3580   -6.9240   48.2810 C.3   160  VAL160      0.0023
    174  N        187.9900   -7.1410   44.2010 N.am  161  CYS161     -0.1968
    175  CA       188.3050   -6.8790   42.7940 C.3   161  CYS161      0.1712
    176  C        187.6020   -7.7730   41.7650 C.2   161  CYS161      0.2296
    177  O        187.2550   -8.9200   42.0550 O.2   161  CYS161     -0.2864
    178  CB       189.8160   -7.0050   42.5860 C.3   161  CYS161      0.0983
    179  SG       190.8130   -6.0550   43.7420 S.3   161  CYS161     -0.0798
    180  N        186.9260   -4.6080   52.1320 N.3   170  ASP170     -0.1239
    181  CA       186.7260   -5.4660   53.2770 C.3   170  ASP170      0.1674
    182  C        187.4990   -4.8120   54.4200 C.2   170  ASP170      0.2266
    183  O        188.6910   -4.5010   54.2730 O.2   170  ASP170     -0.2867
    184  CB       187.3000   -6.8380   52.9570 C.3   170  ASP170      0.1410
    185  CG       186.6430   -7.9420   53.7430 C.2   170  ASP170      0.3668
    186  OD1      187.2620   -8.4270   54.7200 O.co2 170  ASP170     -0.2456
    187  OD2      185.5120   -8.3390   53.3750 O.co2 170  ASP170     -0.2456
@<TRIPOS>BOND
     1   101   100    1
     2   100    97    1
     3    88    89    1
     4    94    92    1
     5   176   177    2
     6   176   175    1
     7    96    97    1
     8    96    90   am
     9    97    98    1
    10   178   175    1
    11   178   179    1
    12    89    92    1
    13    89    90    1
    14    92    93    1
    15   175   174    1
    16    90    91    2
    17    98    99    2
    18   118   117    1
    19    93    95    1
    20   174   169   am
    21   170   169    2
    22   117   116    1
    23   169   168    1
    24   116   115    1
    25   115   114    1
    26   102   103    1
    27   172   171    1
    28   114   111    1
    29   168   171    1
    30   168   167    1
    31    75    76   ar
    32    75    73   ar
    33    76    74   ar
    34   171   173    1
    35   110   111    1
    36   110   104   am
    37    73    72   ar
    38    74    72   ar
    39   107   108    1
    40   107   106    1
    41   107   109    1
    42   103   106    1
    43   103   104    1
    44    72    71    1
    45   167   164   am
    46   111   112    1
    47   165   164    2
    48   166   163    1
    49   164   163    1
    50   104   105    2
    51    71    68    1
    52   113   112    2
    53   112   119   am
    54   163   162    1
    55    68    69    1
    56    68    67    1
    57    70    69    2
    58   162   159   am
    59   119   120    1
    60    86    85    1
    61    62    61    1
    62    62    63    1
    63    67    58   am
    64    61    60    1
    65    87    85    1
    66    85    84    2
    67   120   121    1
    68     4     3    2
    69   145   144   ar
    70   145   143   ar
    71    63    64    2
    72   159   160    2
    73   159   158    1
    74    65    64    1
    75   128   127    1
    76    58    59    2
    77    58    57    1
    78    23    21    1
    79   144   142   ar
    80    64    66    1
    81   123   121   am
    82   123   124    1
    83   143   141   ar
    84    84    83    1
    85    60    57    1
    86    56    57    1
    87   127   124    1
    88   121   122    2
    89   158   161    1
    90   158   157    1
    91     3     2    1
    92     3     8   am
    93    83    82    1
    94    20    19    2
    95    12     9    1
    96    12    13    1
    97     9     8    1
    98     9    10    1
    99   180   181    1
   100   124   125    1
   101    17    10   am
   102    17    18    1
   103    21    18    1
   104    21    22    1
   105     2     5    1
   106     2     1    1
   107   142   140   ar
   108   141   140   ar
   109     5     7    1
   110     5     6    1
   111    82    81    1
   112    15    14    2
   113    10    11    2
   114   184   181    1
   115   184   185    1
   116   157   148   am
   117    18    19    1
   118    19    24   am
   119    81    78    1
   120   134   133    1
   121   140   139    1
   122   181   182    1
   123   125   129   am
   124   125   126    2
   125    14    13    1
   126    14    16   am
   127   187   185   ar
   128   129   130    1
   129   149   148    2
   130    79    78    1
   131    79    80    2
   132   185   186   ar
   133   148   147    1
   134    78    77    1
   135    24    25    1
   136   133   130    1
   137   183   182    2
   138    25    28    1
   139    25    26    1
   140   130   131    1
   141   139   136    1
   142    51    49   ar
   143    51    50   ar
   144    28    29    1
   145   156   154    1
   146    49    47   ar
   147    50    48   ar
   148   146   147    1
   149   146   137   am
   150   147   150    1
   151    26    27    2
   152    30    29   ar
   153    30    32   ar
   154   136   137    1
   155   136   135    1
   156   137   138    2
   157    47    48   ar
   158    47    46    1
   159    45    44    2
   160   131   132    2
   161   154   155    1
   162   154   153    2
   163    29    31   ar
   164   150   151    1
   165   153   152    1
   166    46    43    1
   167   151   152    1
   168    32    34   ar
   169    44    43    1
   170    44    52   am
   171    53    52    1
   172    53    54    1
   173    31    33   ar
   174    43    42    1
   175    40    39    1
   176    55    54    2
   177    34    33   ar
   178    41    39    1
   179    39    36    1
   180    36    37    1
   181    36    35    1
   182    38    37    2
