@<TRIPOS>MOLECULE
tmp/2oc5A00.pdb
 217 205 0 0 0
SMALL
GASTEIGER

@<TRIPOS>ATOM
      1  N         13.6230   47.9960   53.2570 N.3    15  TYR15      -0.1241
      2  CA        13.5800   46.5470   53.2980 C.3    15  TYR15       0.1605
      3  C         12.2550   46.0090   52.8480 C.2    15  TYR15       0.2264
      4  O         12.2270   44.9670   52.1800 O.2    15  TYR15      -0.2867
      5  CB        13.8560   46.0440   54.6980 C.3    15  TYR15       0.0534
      6  CG        14.5080   44.6870   54.7510 C.ar   15  TYR15      -0.0201
      7  CD1       15.8720   44.5440   54.5330 C.ar   15  TYR15      -0.0009
      8  CD2       13.7500   43.5240   54.9520 C.ar   15  TYR15      -0.0009
      9  CE1       16.4940   43.2620   54.5720 C.ar   15  TYR15       0.0417
     10  CE2       14.3470   42.2790   54.9910 C.ar   15  TYR15       0.0417
     11  CZ        15.7000   42.1430   54.7960 C.ar   15  TYR15       0.1957
     12  OH        16.2620   40.8860   54.8380 O.3    15  TYR15      -0.2866
     13  N         12.6790   45.8240   49.0140 N.3    18  ILE18      -0.1231
     14  CA        13.7400   44.9320   48.5790 C.3    18  ILE18       0.1692
     15  C         13.3520   43.4610   48.9150 C.2    18  ILE18       0.2592
     16  O         13.5440   42.5170   48.1150 O.2    18  ILE18      -0.2718
     17  CB        15.0910   45.2820   49.2670 C.3    18  ILE18       0.0266
     18  CG1       15.5840   46.6440   48.7980 C.3    18  ILE18       0.0019
     19  CG2       16.1160   44.1340   49.0590 C.3    18  ILE18       0.0020
     20  CD1       15.8760   46.7330   47.3910 C.3    18  ILE18       0.0001
     21  N         12.8590   43.2480   50.1340 N.am   19  ASN19      -0.1974
     22  CA        12.4080   41.9020   50.5570 C.3    19  ASN19       0.1688
     23  C         11.3120   41.3490   49.6490 C.2    19  ASN19       0.2292
     24  O         11.3700   40.2020   49.2220 O.2    19  ASN19      -0.2864
     25  CB        11.9800   41.9220   52.0180 C.3    19  ASN19       0.1181
     26  CG        11.7340   40.5360   52.5920 C.2    19  ASN19       0.2629
     27  OD1       12.5960   39.6320   52.5440 O.2    19  ASN19      -0.2716
     28  ND2       10.5870   40.3780   53.1400 N.am   19  ASN19      -0.0877
     29  N         10.7490   42.1990   46.4830 N.3    21  ILE21      -0.1231
     30  CA        11.3700   41.8410   45.2010 C.3    21  ILE21       0.1692
     31  C         12.0210   40.4660   45.2080 C.2    21  ILE21       0.2591
     32  O         11.8410   39.6780   44.2740 O.2    21  ILE21      -0.2718
     33  CB        12.3850   42.9670   44.7640 C.3    21  ILE21       0.0266
     34  CG1       11.5770   44.1510   44.2610 C.3    21  ILE21       0.0019
     35  CG2       13.3860   42.4380   43.7300 C.3    21  ILE21       0.0020
     36  CD1       12.4140   45.4370   44.2050 C.3    21  ILE21       0.0001
     37  N         12.7610   40.1560   46.2520 N.am   22  VAL22      -0.1980
     38  CA        13.4140   38.8760   46.3640 C.3    22  VAL22       0.1595
     39  C         12.3630   37.7240   46.4660 C.2    22  VAL22       0.2287
     40  O         12.4380   36.7130   45.7600 O.2    22  VAL22      -0.2864
     41  CB        14.3400   38.9400   47.6050 C.3    22  VAL22       0.0276
     42  CG1       14.8100   37.5920   48.0120 C.3    22  VAL22       0.0022
     43  CG2       15.5560   39.8880   47.2840 C.3    22  VAL22       0.0022
     44  N         10.7680   37.3120   43.1340 N.3    25  GLY25      -0.1210
     45  CA        11.7510   36.7160   42.2500 C.3    25  GLY25       0.1956
     46  C         11.8950   35.2240   42.4260 C.2    25  GLY25       0.2611
     47  O         11.9640   34.4790   41.4370 O.2    25  GLY25      -0.2717
     48  N         11.9800   34.7770   43.6730 N.am   26  GLU26      -0.1979
     49  CA        12.0580   33.3450   43.9560 C.3    26  GLU26       0.1602
     50  C         10.8000   32.5850   43.4800 C.2    26  GLU26       0.2287
     51  O         10.8960   31.5260   42.8570 O.2    26  GLU26      -0.2864
     52  CB        12.3490   33.0680   45.4520 C.3    26  GLU26       0.0415
     53  CG        13.5610   33.7920   46.0540 C.3    26  GLU26       0.1163
     54  CD        14.9180   33.3350   45.5740 C.2    26  GLU26       0.3649
     55  OE1       14.9740   32.2890   44.9530 O.co2  26  GLU26      -0.2457
     56  OE2       15.9530   34.0490   45.8380 O.co2  26  GLU26      -0.2457
     57  N         10.9280   32.4110   39.6960 N.3    29  ALA29      -0.1245
     58  CA        11.9610   31.4500   39.3130 C.3    29  ALA29       0.1562
     59  C         11.3960   30.0340   39.3750 C.2    29  ALA29       0.2260
     60  O         11.5760   29.2360   38.4260 O.2    29  ALA29      -0.2867
     61  CB        13.1530   31.6210   40.2160 C.3    29  ALA29       0.0290
     62  N         13.9740   26.9040   44.6530 N.3    53  GLU53      -0.1245
     63  CA        13.4850   28.2860   44.6420 C.3    53  GLU53       0.1567
     64  C         12.4430   28.4970   45.7270 C.2    53  GLU53       0.2260
     65  O         12.4130   29.5540   46.3660 O.2    53  GLU53      -0.2867
     66  CB        12.9140   28.6610   43.2970 C.3    53  GLU53       0.0388
     67  CG        13.8890   28.5700   42.0970 C.3    53  GLU53       0.1160
     68  CD        15.0530   29.5210   42.1380 C.2    53  GLU53       0.3649
     69  OE1       15.2290   30.2680   43.1320 O.co2  53  GLU53      -0.2457
     70  OE2       15.8040   29.5320   41.1410 O.co2  53  GLU53      -0.2457
     71  N         13.7100   33.8490   52.6110 N.3    59  PHE59      -0.1241
     72  CA        13.6660   35.3010   52.5010 C.3    59  PHE59       0.1605
     73  C         12.3930   35.8950   53.0990 C.2    59  PHE59       0.2264
     74  O         12.4100   36.9750   53.6340 O.2    59  PHE59      -0.2867
     75  CB        13.9140   35.7490   51.0560 C.3    59  PHE59       0.0534
     76  CG        15.3130   35.4540   50.5840 C.ar   59  PHE59      -0.0203
     77  CD1       16.4350   35.9040   51.3240 C.ar   59  PHE59      -0.0042
     78  CD2       15.5480   34.7820   49.4050 C.ar   59  PHE59      -0.0042
     79  CE1       17.7190   35.6780   50.8740 C.ar   59  PHE59      -0.0003
     80  CE2       16.8560   34.5640   48.9520 C.ar   59  PHE59      -0.0003
     81  CZ        17.9300   34.9850   49.7060 C.ar   59  PHE59      -0.0000
     82  N         13.1650   36.3480   56.6000 N.3    62  CYS62      -0.1235
     83  CA        14.0400   37.5180   56.8260 C.3    62  CYS62       0.1677
     84  C         13.2270   38.7960   57.1020 C.2    62  CYS62       0.2270
     85  O         13.5380   39.5690   58.0240 O.2    62  CYS62      -0.2867
     86  CB        15.0220   37.7480   55.6430 C.3    62  CYS62       0.0956
     87  SG        16.2690   36.4440   55.4740 S.3    62  CYS62      -0.0801
     88  N          7.6560   45.5260   39.4860 N.3    77  PHE77      -0.1227
     89  CA         9.0790   45.5400   39.2250 C.3    77  PHE77       0.1736
     90  C          9.5070   44.4430   38.2170 C.2    77  PHE77       0.2595
     91  O         10.3450   44.6920   37.3220 O.2    77  PHE77      -0.2718
     92  CB         9.8410   45.3380   40.5660 C.3    77  PHE77       0.0547
     93  CG        11.3350   45.3060   40.4660 C.ar   77  PHE77      -0.0202
     94  CD1       12.0800   46.5060   40.4640 C.ar   77  PHE77      -0.0042
     95  CD2       12.0540   44.0910   40.4870 C.ar   77  PHE77      -0.0042
     96  CE1       13.5020   46.4680   40.4420 C.ar   77  PHE77      -0.0003
     97  CE2       13.4640   44.0570   40.4700 C.ar   77  PHE77      -0.0003
     98  CZ        14.1820   45.2320   40.4270 C.ar   77  PHE77      -0.0000
     99  N          8.9340   43.2590   38.3340 N.am   78  PHE78      -0.1976
    100  CA         9.2550   42.1180   37.4540 C.3    78  PHE78       0.1639
    101  C          8.4210   42.0820   36.1600 C.2    78  PHE78       0.2290
    102  O          8.7400   41.3370   35.2470 O.2    78  PHE78      -0.2864
    103  CB         9.0710   40.7910   38.1890 C.3    78  PHE78       0.0560
    104  CG        10.2630   40.4390   39.0440 C.ar   78  PHE78      -0.0200
    105  CD1       11.4390   39.9830   38.4720 C.ar   78  PHE78      -0.0042
    106  CD2       10.2060   40.6080   40.4050 C.ar   78  PHE78      -0.0042
    107  CE1       12.5560   39.7010   39.3050 C.ar   78  PHE78      -0.0003
    108  CE2       11.3070   40.3080   41.1850 C.ar   78  PHE78      -0.0003
    109  CZ        12.4400   39.8930   40.6420 C.ar   78  PHE78      -0.0000
    110  N         15.9450   33.4470   32.4750 N.3   101  GLN101     -0.1245
    111  CA        15.9170   32.9150   33.8640 C.3   101  GLN101      0.1566
    112  C         17.2760   32.4360   34.3400 C.2   101  GLN101      0.2260
    113  O         17.7700   32.8840   35.3820 O.2   101  GLN101     -0.2867
    114  CB        14.8890   31.8060   34.0510 C.3   101  GLN101      0.0367
    115  CG        14.9130   31.1700   35.4790 C.3   101  GLN101      0.0905
    116  CD        14.6380   32.1290   36.6420 C.2   101  GLN101      0.2608
    117  OE1       13.6710   32.8720   36.5960 O.2   101  GLN101     -0.2717
    118  NE2       15.5560   32.1630   37.6560 N.am  101  GLN101     -0.0878
    119  N         18.7470   36.4710   35.2200 N.3   105  ILE105     -0.1231
    120  CA        18.1610   36.5790   36.5470 C.3   105  ILE105      0.1692
    121  C         19.0450   35.9120   37.6060 C.2   105  ILE105      0.2591
    122  O         19.2170   36.4630   38.6740 O.2   105  ILE105     -0.2718
    123  CB        16.6760   36.1210   36.6000 C.3   105  ILE105      0.0266
    124  CG1       15.7900   37.0580   35.7560 C.3   105  ILE105      0.0019
    125  CG2       16.1620   36.1520   38.0410 C.3   105  ILE105      0.0020
    126  CD1       14.3940   36.4750   35.3960 C.3   105  ILE105      0.0001
    127  N         19.6000   34.7630   37.3080 N.am  106  GLU106     -0.1979
    128  CA        20.5150   34.1070   38.2810 C.3   106  GLU106      0.1602
    129  C         21.7470   34.9880   38.5310 C.2   106  GLU106      0.2287
    130  O         22.1930   35.1060   39.6670 O.2   106  GLU106     -0.2864
    131  CB        20.9140   32.7060   37.8500 C.3   106  GLU106      0.0415
    132  CG        19.7500   31.6570   37.6980 C.3   106  GLU106      0.1163
    133  CD        18.9910   31.2970   38.9890 C.2   106  GLU106      0.3649
    134  OE1       19.4630   31.6310   40.1150 O.co2 106  GLU106     -0.2457
    135  OE2       17.9560   30.6230   38.8150 O.co2 106  GLU106     -0.2457
    136  N         21.8490   38.3110   38.3020 N.3   108  PHE108     -0.1227
    137  CA        21.3290   39.4420   39.0750 C.3   108  PHE108      0.1736
    138  C         21.1970   39.0450   40.5520 C.2   108  PHE108      0.2595
    139  O         21.6430   39.7500   41.4570 O.2   108  PHE108     -0.2718
    140  CB        19.9840   39.8700   38.4670 C.3   108  PHE108      0.0547
    141  CG        19.4180   41.2020   38.9790 C.ar  108  PHE108     -0.0202
    142  CD1       20.2090   42.1620   39.5700 C.ar  108  PHE108     -0.0042
    143  CD2       18.0880   41.4870   38.8030 C.ar  108  PHE108     -0.0042
    144  CE1       19.6830   43.3860   39.9820 C.ar  108  PHE108     -0.0003
    145  CE2       17.5520   42.7190   39.2430 C.ar  108  PHE108     -0.0003
    146  CZ        18.3650   43.6520   39.8230 C.ar  108  PHE108     -0.0000
    147  N         20.6520   37.8670   40.7780 N.am  109  ALA109     -0.1980
    148  CA        20.4760   37.3820   42.1520 C.3   109  ALA109      0.1597
    149  C         21.7890   37.1450   42.8690 C.2   109  ALA109      0.2287
    150  O         21.9990   37.5600   44.0090 O.2   109  ALA109     -0.2864
    151  CB        19.6700   36.0970   42.1500 C.3   109  ALA109      0.0319
    152  N         23.3090   40.4470   43.7790 N.3   112  ALA112     -0.1231
    153  CA        22.5380   41.0590   44.8610 C.3   112  ALA112      0.1694
    154  C         22.8840   40.4140   46.2150 C.2   112  ALA112      0.2592
    155  O         23.2060   41.1130   47.2270 O.2   112  ALA112     -0.2718
    156  CB        21.0740   40.9060   44.5830 C.3   112  ALA112      0.0304
    157  N         22.8700   39.0900   46.2020 N.am  113  TYR113     -0.1976
    158  CA        23.1040   38.2930   47.4320 C.3   113  TYR113      0.1639
    159  C         24.5590   38.4200   47.9190 C.2   113  TYR113      0.2290
    160  O         24.7990   38.6110   49.1150 O.2   113  TYR113     -0.2864
    161  CB        22.6250   36.8300   47.3190 C.3   113  TYR113      0.0560
    162  CG        21.1240   36.6850   47.0370 C.ar  113  TYR113     -0.0198
    163  CD1       20.2460   37.7220   47.3450 C.ar  113  TYR113     -0.0009
    164  CD2       20.6210   35.6150   46.3870 C.ar  113  TYR113     -0.0009
    165  CE1       18.9300   37.6530   47.0600 C.ar  113  TYR113      0.0417
    166  CE2       19.2730   35.5480   46.0850 C.ar  113  TYR113      0.0417
    167  CZ        18.4390   36.5620   46.4140 C.ar  113  TYR113      0.1957
    168  OH        17.0630   36.5120   46.1350 O.3   113  TYR113     -0.2866
    169  N         24.7740   41.9290   49.3910 N.3   116  TYR116     -0.1241
    170  CA        24.0030   42.0350   50.6530 C.3   116  TYR116      0.1605
    171  C         24.6750   41.3920   51.8750 C.2   116  TYR116      0.2264
    172  O         24.6690   41.9320   52.9940 O.2   116  TYR116     -0.2867
    173  CB        22.6450   41.4150   50.4160 C.3   116  TYR116      0.0534
    174  CG        21.7120   41.3490   51.6310 C.ar  116  TYR116     -0.0201
    175  CD1       21.3530   42.5160   52.3720 C.ar  116  TYR116     -0.0009
    176  CD2       21.1950   40.1290   52.0640 C.ar  116  TYR116     -0.0009
    177  CE1       20.4760   42.4230   53.4640 C.ar  116  TYR116      0.0417
    178  CE2       20.3330   40.0270   53.1100 C.ar  116  TYR116      0.0417
    179  CZ        19.9850   41.1760   53.8480 C.ar  116  TYR116      0.1957
    180  OH        19.1050   41.0550   54.8940 O.3   116  TYR116     -0.2866
    181  N         22.5350   29.3010   43.4720 N.3   135  GLU135     -0.1245
    182  CA        22.5290   30.1950   42.2870 C.3   135  GLU135      0.1567
    183  C         23.5250   29.6740   41.2610 C.2   135  GLU135      0.2260
    184  O         23.2380   29.6310   40.0760 O.2   135  GLU135     -0.2867
    185  CB        22.9080   31.6370   42.6380 C.3   135  GLU135      0.0388
    186  CG        22.2530   32.2020   43.8930 C.3   135  GLU135      0.1160
    187  CD        20.7570   32.1470   43.8390 C.2   135  GLU135      0.3649
    188  OE1       20.2010   31.0410   43.7570 O.co2 135  GLU135     -0.2457
    189  OE2       20.1160   33.2230   43.8640 O.co2 135  GLU135     -0.2457
    190  N         16.1590   49.8150   41.8030 N.3   174  VAL174     -0.1245
    191  CA        16.3770   49.2940   43.1420 C.3   174  VAL174      0.1561
    192  C         17.4870   50.0650   43.8940 C.2   174  VAL174      0.2260
    193  O         17.6380   49.8620   45.1100 O.2   174  VAL174     -0.2867
    194  CB        16.6360   47.7350   43.0720 C.3   174  VAL174      0.0252
    195  CG1       18.0510   47.3900   42.7030 C.3   174  VAL174      0.0019
    196  CG2       16.2230   47.0500   44.3530 C.3   174  VAL174      0.0019
    197  N         18.5430   49.9450   47.8210 N.3   178  ALA178     -0.1245
    198  CA        19.7390   49.1560   48.0930 C.3   178  ALA178      0.1562
    199  C         20.7810   50.0080   48.8460 C.2   178  ALA178      0.2260
    200  O         21.4770   49.5210   49.7560 O.2   178  ALA178     -0.2867
    201  CB        20.3050   48.5870   46.7990 C.3   178  ALA178      0.0290
    202  N         20.1070   50.0320   52.4020 N.3   181  LEU181     -0.1245
    203  CA        20.6680   48.7590   52.9050 C.3   181  LEU181      0.1561
    204  C         22.2060   48.6670   52.9510 C.2   181  LEU181      0.2260
    205  O         22.7330   47.5820   53.2870 O.2   181  LEU181     -0.2867
    206  CB        20.1050   47.5620   52.1310 C.3   181  LEU181      0.0270
    207  CG        18.8080   46.9630   52.6750 C.3   181  LEU181      0.0019
    208  CD1       17.6860   47.9560   52.7720 C.3   181  LEU181      0.0001
    209  CD2       18.3670   45.8130   51.7290 C.3   181  LEU181      0.0001
    210  N         27.0370   46.0680   42.7570 N.3   187  LEU187     -0.1245
    211  CA        25.9680   45.2610   42.1420 C.3   187  LEU187      0.1561
    212  C         26.2110   45.1190   40.6350 C.2   187  LEU187      0.2260
    213  O         26.1030   44.0200   40.0650 O.2   187  LEU187     -0.2867
    214  CB        24.6340   45.9420   42.3660 C.3   187  LEU187      0.0270
    215  CG        24.0450   45.8520   43.7830 C.3   187  LEU187      0.0019
    216  CD1       22.8140   46.7710   43.9430 C.3   187  LEU187      0.0001
    217  CD2       23.6270   44.4310   44.1270 C.3   187  LEU187      0.0001
@<TRIPOS>BOND
     1   110   111    1
     2   111   114    1
     3   111   112    1
     4   114   115    1
     5   112   113    2
     6   119   120    1
     7   102   101    2
     8   126   124    1
     9   115   116    1
    10   124   123    1
    11   101   100    1
    12   120   123    1
    13   120   121    1
    14   117   116    2
    15   123   125    1
    16   116   118   am
    17   127   121   am
    18   127   128    1
    19    91    90    2
    20   100   103    1
    21   100    99    1
    22   121   122    2
    23   132   131    1
    24   132   133    1
    25   131   128    1
    26   103   104    1
    27    90    99   am
    28    90    89    1
    29   128   129    1
    30   136   137    1
    31    60    59    2
    32   140   141    1
    33   140   137    1
    34   105   104   ar
    35   105   107   ar
    36   129   130    2
    37   143   141   ar
    38   143   145   ar
    39   135   133   ar
    40   141   142   ar
    41   133   134   ar
    42   104   106   ar
    43   137   138    1
    44    89    88    1
    45    89    92    1
    46   145   146   ar
    47   107   109   ar
    48    58    59    1
    49    58    57    1
    50    58    61    1
    51   142   144   ar
    52   146   144   ar
    53   213   212    2
    54   184   183    2
    55   106   108   ar
    56    98    96   ar
    57    98    97   ar
    58    96    94   ar
    59    94    93   ar
    60    93    95   ar
    61    93    92    1
    62    97    95   ar
    63   138   147   am
    64   138   139    2
    65   212   211    1
    66   109   108   ar
    67   147   148    1
    68    70    68   ar
    69   183   182    1
    70    47    46    2
    71   190   191    1
    72    67    68    1
    73    67    66    1
    74    68    69   ar
    75   211   214    1
    76   211   210    1
    77   151   148    1
    78   148   149    1
    79    45    46    1
    80    45    44    1
    81   182   185    1
    82   182   181    1
    83   214   215    1
    84    46    48   am
    85   185   186    1
    86   195   194    1
    87    51    50    2
    88   149   150    2
    89   194   191    1
    90   194   196    1
    91   191   192    1
    92    66    63    1
    93    50    49    1
    94    48    49    1
    95    35    33    1
    96   188   187   ar
    97   152   153    1
    98   215   216    1
    99   215   217    1
   100   187   189   ar
   101   187   186    1
   102   192   193    2
   103    49    52    1
   104    36    34    1
   105    34    33    1
   106    32    31    2
   107   156   153    1
   108    63    62    1
   109    63    64    1
   110    33    30    1
   111   153   154    1
   112    55    54   ar
   113    30    31    1
   114    30    29    1
   115    31    37   am
   116    52    53    1
   117    54    56   ar
   118    54    53    1
   119    64    65    2
   120    40    39    2
   121   166   164   ar
   122   166   167   ar
   123   168   167    1
   124   157   154   am
   125   157   158    1
   126   154   155    2
   127    37    38    1
   128    38    39    1
   129    38    41    1
   130   164   162   ar
   131   167   165   ar
   132   201   198    1
   133   162   161    1
   134   162   163   ar
   135   165   163   ar
   136    43    41    1
   137   161   158    1
   138    20    18    1
   139   158   159    1
   140    41    42    1
   141   197   198    1
   142   159   160    2
   143   198   199    1
   144    16    15    2
   145    14    15    1
   146    14    13    1
   147    14    17    1
   148    18    17    1
   149   199   200    2
   150    15    21   am
   151    80    78   ar
   152    80    81   ar
   153    19    17    1
   154    24    23    2
   155   169   170    1
   156    78    76   ar
   157    23    22    1
   158    81    79   ar
   159    21    22    1
   160   173   170    1
   161   173   174    1
   162    22    25    1
   163    76    75    1
   164    76    77   ar
   165   170   171    1
   166    79    77   ar
   167    75    72    1
   168   174   176   ar
   169   174   175   ar
   170   209   207    1
   171   171   172    2
   172    25    26    1
   173   176   178   ar
   174   206   207    1
   175   206   203    1
   176     4     3    2
   177   175   177   ar
   178   202   203    1
   179    72    71    1
   180    72    73    1
   181    27    26    2
   182    26    28   am
   183   207   208    1
   184     3     2    1
   185   203   204    1
   186   204   205    2
   187    73    74    2
   188   178   179   ar
   189     1     2    1
   190     2     5    1
   191   177   179   ar
   192   179   180    1
   193     7     9   ar
   194     7     6   ar
   195     9    11   ar
   196     5     6    1
   197     6     8   ar
   198    11    12    1
   199    11    10   ar
   200     8    10   ar
   201    87    86    1
   202    86    83    1
   203    82    83    1
   204    83    84    1
   205    84    85    2
