@<TRIPOS>MOLECULE
tmp/2oc7A00.pdb
 161 155 0 0 0
SMALL
GASTEIGER

@<TRIPOS>ATOM
      1  N        208.5220   -5.6380   52.9000 N.3    41  GLN41      -0.1231
      2  CA       207.4030   -4.7940   52.4950 C.3    41  GLN41       0.1698
      3  C        207.1510   -3.5180   53.2770 C.2    41  GLN41       0.2593
      4  O        207.6680   -3.3390   54.3740 O.2    41  GLN41      -0.2718
      5  CB       206.1150   -5.6170   52.4530 C.3    41  GLN41       0.0381
      6  CG       205.7410   -6.2760   53.7560 C.3    41  GLN41       0.0905
      7  CD       204.7330   -7.3870   53.5560 C.2    41  GLN41       0.2608
      8  OE1      203.6020   -7.1620   53.0880 O.2    41  GLN41      -0.2717
      9  NE2      205.1480   -8.6060   53.8790 N.am   41  GLN41      -0.0878
     10  N        206.3720   -2.6250   52.6730 N.am   42  THR42      -0.1939
     11  CA       206.0080   -1.3650   53.2820 C.3    42  THR42       0.2028
     12  C        204.5190   -1.4190   53.4460 C.2    42  THR42       0.2642
     13  O        203.8050   -1.9370   52.5910 O.2    42  THR42      -0.2714
     14  CB       206.3510   -0.1540   52.3980 C.3    42  THR42       0.1808
     15  OG1      207.7710    0.0160   52.3510 O.3    42  THR42      -0.2208
     16  CG2      205.7150    1.1340   52.9510 C.3    42  THR42       0.0379
     17  N        204.0680   -0.9360   54.5870 N.am   43  PHE43      -0.1973
     18  CA       202.6660   -0.8910   54.9150 C.3    43  PHE43       0.1639
     19  C        202.4930    0.2890   55.8400 C.2    43  PHE43       0.2290
     20  O        203.3890    1.1440   55.9240 O.2    43  PHE43      -0.2864
     21  CB       202.1940   -2.2020   55.5630 C.3    43  PHE43       0.0560
     22  CG       203.2100   -2.8590   56.4540 C.ar   43  PHE43      -0.0200
     23  CD1      204.3330   -3.4880   55.9140 C.ar   43  PHE43      -0.0042
     24  CD2      203.0250   -2.8870   57.8270 C.ar   43  PHE43      -0.0042
     25  CE1      205.2480   -4.1390   56.7340 C.ar   43  PHE43      -0.0003
     26  CE2      203.9390   -3.5360   58.6520 C.ar   43  PHE43      -0.0003
     27  CZ       205.0520   -4.1620   58.1030 C.ar   43  PHE43      -0.0000
     28  N        198.8540   -4.4170   60.5760 N.3    55  VAL55      -0.1245
     29  CA       198.4300   -5.7160   60.1010 C.3    55  VAL55       0.1561
     30  C        199.5160   -6.7910   60.3620 C.2    55  VAL55       0.2260
     31  O        200.6720   -6.6530   59.9510 O.2    55  VAL55      -0.2867
     32  CB       197.9990   -5.5660   58.6140 C.3    55  VAL55       0.0252
     33  CG1      199.1910   -5.5810   57.7030 C.3    55  VAL55       0.0019
     34  CG2      196.9490   -6.5820   58.2420 C.3    55  VAL55       0.0019
     35  N        200.0280   -9.6660   59.1810 N.3    57  HIS57      -0.1226
     36  CA       200.6370  -10.2250   57.9790 C.3    57  HIS57       0.1752
     37  C        201.6990   -9.3180   57.3630 C.2    57  HIS57       0.2596
     38  O        202.1990   -9.5810   56.2790 O.2    57  HIS57      -0.2718
     39  CB       199.5650  -10.6100   56.9510 C.3    57  HIS57       0.0759
     40  CG       199.0000   -9.4550   56.1840 C.ar   57  HIS57       0.0818
     41  ND1      197.7320   -8.9570   56.4040 N.ar   57  HIS57      -0.2268
     42  CD2      199.4950   -8.7630   55.1290 C.ar   57  HIS57       0.1154
     43  CE1      197.4670   -8.0140   55.5150 C.ar   57  HIS57       0.1986
     44  NE2      198.5210   -7.8850   54.7320 N.ar   57  HIS57      -0.2212
     45  N        202.0370   -8.2440   58.0590 N.am   58  GLY58      -0.1957
     46  CA       203.0360   -7.3350   57.5620 C.3    58  GLY58       0.1869
     47  C        204.1200   -7.2560   58.6000 C.2    58  GLY58       0.2309
     48  O        205.2990   -7.3850   58.2800 O.2    58  GLY58      -0.2863
     49  N        194.6490  -10.7820   62.7500 N.3    81  ASP81      -0.1239
     50  CA       195.6610  -10.1140   61.9460 C.3    81  ASP81       0.1674
     51  C        196.1310   -8.8010   62.5620 C.2    81  ASP81       0.2266
     52  O        196.4210   -7.8460   61.8350 O.2    81  ASP81      -0.2867
     53  CB       195.0940   -9.8550   60.5480 C.3    81  ASP81       0.1410
     54  CG       196.1070  -10.0690   59.4460 C.2    81  ASP81       0.3668
     55  OD1      195.8130   -9.6340   58.3130 O.co2  81  ASP81      -0.2456
     56  OD2      197.1690  -10.6820   59.6960 O.co2  81  ASP81      -0.2456
     57  N        183.6960   -4.8530   55.5330 N.3   123  ARG123     -0.1245
     58  CA       183.8850   -4.6290   54.1010 C.3   123  ARG123      0.1563
     59  C        183.2070   -3.3540   53.6370 C.2   123  ARG123      0.2260
     60  O        182.1490   -2.9760   54.1270 O.2   123  ARG123     -0.2867
     61  CB       183.3960   -5.8280   53.2790 C.3   123  ARG123      0.0307
     62  CG       183.7300   -5.7260   51.7840 C.3   123  ARG123      0.0489
     63  CD       183.3590   -6.9770   50.9680 C.3   123  ARG123      0.2205
     64  NE       184.3560   -8.0500   51.0580 N.pl3 123  ARG123     -0.0865
     65  CZ       184.5230   -9.0030   50.1410 C.cat 123  ARG123      0.5346
     66  NH1      183.7570   -9.0290   49.0600 N.pl3 123  ARG123      0.1354
     67  NH2      185.4760   -9.9200   50.2900 N.pl3 123  ARG123      0.1354
     68  N        194.6370   -1.9480   41.8950 N.3   132  ILE132     -0.1245
     69  CA       195.2250   -2.4980   43.1150 C.3   132  ILE132      0.1561
     70  C        196.5410   -1.8300   43.4670 C.2   132  ILE132      0.2260
     71  O        196.8340   -1.6160   44.6430 O.2   132  ILE132     -0.2867
     72  CB       195.4370   -4.0130   43.0410 C.3   132  ILE132      0.0252
     73  CG1      196.2060   -4.3880   41.7830 C.3   132  ILE132      0.0019
     74  CG2      194.1160   -4.7180   43.1190 C.3   132  ILE132      0.0019
     75  CD1      197.6130   -4.8140   42.0610 C.3   132  ILE132      0.0001
     76  N        196.3590    0.9450   45.9780 N.3   135  LEU135     -0.1231
     77  CA       196.1980    0.4970   47.3550 C.3   135  LEU135      0.1693
     78  C        197.4140   -0.2390   47.9460 C.2   135  LEU135      0.2592
     79  O        197.4820   -0.4770   49.1550 O.2   135  LEU135     -0.2718
     80  CB       194.9390   -0.3710   47.4560 C.3   135  LEU135      0.0284
     81  CG       193.6250    0.3110   47.8520 C.3   135  LEU135      0.0019
     82  CD1      193.5540    1.7460   47.3940 C.3   135  LEU135      0.0001
     83  CD2      192.4720   -0.5090   47.3270 C.3   135  LEU135      0.0001
     84  N        198.3820   -0.5910   47.1070 N.am  136  LYS136     -0.1966
     85  CA       199.5570   -1.3170   47.5850 C.3   136  LYS136      0.1728
     86  C        200.2650   -0.4920   48.6190 C.2   136  LYS136      0.2617
     87  O        200.2640    0.7350   48.5360 O.2   136  LYS136     -0.2715
     88  CB       200.5270   -1.6520   46.4460 C.3   136  LYS136      0.0311
     89  CG       200.1380   -2.8690   45.6270 C.3   136  LYS136      0.0038
     90  CD       201.2480   -3.2810   44.6690 C.3   136  LYS136      0.0206
     91  CE       200.8700   -4.5180   43.8530 C.3   136  LYS136      0.1093
     92  NZ       200.7080   -5.7510   44.6830 N.3   136  LYS136     -0.1314
     93  N        200.8340   -1.1740   49.6100 N.am  137  GLY137     -0.1940
     94  CA       201.5600   -0.5090   50.6800 C.3   137  GLY137      0.2014
     95  C        200.7690    0.2630   51.7290 C.2   137  GLY137      0.2640
     96  O        201.3730    0.9390   52.5600 O.2   137  GLY137     -0.2714
     97  N        199.4410    0.1790   51.7120 N.am  138  SER138     -0.1935
     98  CA       198.6720    0.9090   52.7090 C.3   138  SER138      0.2055
     99  C        197.8600    0.0530   53.6820 C.2   138  SER138      0.2643
    100  O        196.8760    0.5080   54.2600 O.2   138  SER138     -0.2714
    101  CB       197.8170    2.0020   52.0550 C.3   138  SER138      0.2130
    102  OG       196.9260    1.4900   51.0920 O.3   138  SER138     -0.2179
    103  N        198.3340   -1.1690   53.9100 N.am  139  SER139     -0.1949
    104  CA       197.6990   -2.1050   54.8390 C.3   139  SER139      0.1924
    105  C        198.0410   -1.6150   56.2340 C.2   139  SER139      0.2314
    106  O        199.1800   -1.2380   56.4920 O.2   139  SER139     -0.2863
    107  CB       198.2760   -3.5050   54.6470 C.3   139  SER139      0.2116
    108  OG       198.0190   -3.7300   53.2590 O.3   139  SER139     -0.2180
    109  N        192.8390   -1.0110   57.1880 N.3   154  PHE154     -0.1227
    110  CA       192.8630   -1.6720   55.8850 C.3   154  PHE154      0.1736
    111  C        193.6370   -2.9880   55.9210 C.2   154  PHE154      0.2595
    112  O        194.8000   -3.0360   56.3080 O.2   154  PHE154     -0.2718
    113  CB       193.4690   -0.7250   54.8450 C.3   154  PHE154      0.0547
    114  CG       193.5010   -1.2830   53.4510 C.ar  154  PHE154     -0.0202
    115  CD1      192.3460   -1.7690   52.8530 C.ar  154  PHE154     -0.0042
    116  CD2      194.6910   -1.3050   52.7250 C.ar  154  PHE154     -0.0042
    117  CE1      192.3750   -2.2640   51.5530 C.ar  154  PHE154     -0.0003
    118  CE2      194.7320   -1.7990   51.4210 C.ar  154  PHE154     -0.0003
    119  CZ       193.5710   -2.2790   50.8330 C.ar  154  PHE154     -0.0000
    120  N        192.9940   -4.0540   55.4800 N.am  155  ARG155     -0.1966
    121  CA       193.6270   -5.3530   55.4850 C.3   155  ARG155      0.1729
    122  C        193.7550   -5.9760   54.1050 C.2   155  ARG155      0.2616
    123  O        194.8350   -6.4530   53.7280 O.2   155  ARG155     -0.2715
    124  CB       192.8440   -6.3200   56.3730 C.3   155  ARG155      0.0348
    125  CG       193.4100   -7.7130   56.3200 C.3   155  ARG155      0.0492
    126  CD       192.6070   -8.6910   57.0930 C.3   155  ARG155      0.2205
    127  NE       193.1600  -10.0240   56.8940 N.pl3 155  ARG155     -0.0865
    128  CZ       192.6430  -10.9190   56.0630 C.cat 155  ARG155      0.5346
    129  NH1      191.5540  -10.6160   55.3600 N.pl3 155  ARG155      0.1354
    130  NH2      193.2360  -12.1000   55.9020 N.pl3 155  ARG155      0.1354
    131  N        192.6520   -5.9900   53.3600 N.am  156  ALA156     -0.1963
    132  CA       192.6350   -6.6050   52.0420 C.3   156  ALA156      0.1728
    133  C        191.9120   -5.8330   50.9620 C.2   156  ALA156      0.2616
    134  O        191.0500   -4.9920   51.2240 O.2   156  ALA156     -0.2715
    135  CB       192.0560   -7.9940   52.1370 C.3   156  ALA156      0.0334
    136  N        192.2660   -6.1620   49.7320 N.am  157  ALA157     -0.1963
    137  CA       191.6740   -5.5470   48.5680 C.3   157  ALA157      0.1728
    138  C        190.8490   -6.5920   47.8360 C.2   157  ALA157      0.2616
    139  O        191.2840   -7.7400   47.6850 O.2   157  ALA157     -0.2715
    140  CB       192.7630   -5.0280   47.6650 C.3   157  ALA157      0.0334
    141  N        189.6340   -6.2110   47.4490 N.am  158  VAL158     -0.1963
    142  CA       188.7410   -7.0900   46.6940 C.3   158  VAL158      0.1727
    143  C        188.9900   -6.7340   45.2310 C.2   158  VAL158      0.2616
    144  O        188.3380   -5.8590   44.6480 O.2   158  VAL158     -0.2715
    145  CB       187.2650   -6.8690   47.0620 C.3   158  VAL158      0.0290
    146  CG1      186.3820   -7.7030   46.1670 C.3   158  VAL158      0.0023
    147  CG2      187.0290   -7.2250   48.5220 C.3   158  VAL158      0.0023
    148  N        190.0220   -7.3660   44.6940 N.am  159  CYS159     -0.1968
    149  CA       190.4640   -7.1530   43.3350 C.3   159  CYS159      0.1712
    150  C        189.6510   -7.8600   42.2510 C.2   159  CYS159      0.2296
    151  O        189.2280   -9.0110   42.4080 O.2   159  CYS159     -0.2864
    152  CB       191.9320   -7.5550   43.2290 C.3   159  CYS159      0.0983
    153  SG       192.5810   -7.5040   41.5560 S.3   159  CYS159     -0.0798
    154  N        188.5340   -5.0330   52.5120 N.3   168  ASP168     -0.1239
    155  CA       188.2450   -5.7240   53.7600 C.3   168  ASP168      0.1674
    156  C        189.0790   -5.0620   54.8420 C.2   168  ASP168      0.2266
    157  O        190.2640   -4.7830   54.6390 O.2   168  ASP168     -0.2867
    158  CB       188.6240   -7.2040   53.6710 C.3   168  ASP168      0.1410
    159  CG       187.5490   -8.0500   53.0110 C.2   168  ASP168      0.3668
    160  OD1      186.3550   -7.6910   53.1150 O.co2 168  ASP168     -0.2456
    161  OD2      187.8950   -9.0920   52.4070 O.co2 168  ASP168     -0.2456
@<TRIPOS>BOND
     1   153   152    1
     2    73    75    1
     3    73    72    1
     4    68    69    1
     5   150   151    2
     6   150   149    1
     7    72    69    1
     8    72    74    1
     9    69    70    1
    10   152   149    1
    11   149   148    1
    12    70    71    2
    13    91    90    1
    14    91    92    1
    15   144   143    2
    16    90    89    1
    17   148   143   am
    18   143   142    1
    19    89    88    1
    20    76    77    1
    21   146   145    1
    22    88    85    1
    23   142   145    1
    24   142   141    1
    25   145   147    1
    26    84    85    1
    27    84    78   am
    28    83    81    1
    29    77    80    1
    30    77    78    1
    31    82    81    1
    32   141   138   am
    33    80    81    1
    34    85    86    1
    35   140   137    1
    36   139   138    2
    37   138   137    1
    38    78    79    2
    39    87    86    2
    40   137   136    1
    41    86    93   am
    42    66    65    1
    43    93    94    1
    44   136   133   am
    45    65    67    1
    46    65    64    2
    47    94    95    1
    48   119   118   ar
    49   119   117   ar
    50   133   134    2
    51   133   132    1
    52    63    64    1
    53    63    62    1
    54   102   101    1
    55   118   116   ar
    56   117   115   ar
    57    97    95   am
    58    97    98    1
    59    95    96    2
    60    62    61    1
    61   132   135    1
    62   132   131    1
    63   101    98    1
    64    15    14    1
    65    14    16    1
    66    14    11    1
    67   161   159   ar
    68     5     2    1
    69     5     6    1
    70     2     1    1
    71     2     3    1
    72   154   155    1
    73    13    12    2
    74    10     3   am
    75    10    11    1
    76    98    99    1
    77   116   114   ar
    78   115   114   ar
    79   159   160   ar
    80   159   158    1
    81     8     7    2
    82   108   107    1
    83     3     4    2
    84    61    58    1
    85    11    12    1
    86   131   122   am
    87    12    17   am
    88   114   113    1
    89     7     6    1
    90     7     9   am
    91    59    58    1
    92    59    60    2
    93   158   155    1
    94    99   103   am
    95    99   100    2
    96   123   122    2
    97   155   156    1
    98   103   104    1
    99    58    57    1
   100   122   121    1
   101    17    18    1
   102   157   156    2
   103   107   104    1
   104    44    42   ar
   105    44    43   ar
   106   104   105    1
   107   113   110    1
   108    18    21    1
   109    18    19    1
   110    42    40   ar
   111   129   128    1
   112   120   121    1
   113   120   111   am
   114   121   124    1
   115    43    41   ar
   116    21    22    1
   117    19    20    2
   118   110   111    1
   119   110   109    1
   120   130   128    1
   121    23    22   ar
   122    23    25   ar
   123   111   112    2
   124   128   127    2
   125    40    41   ar
   126    40    39    1
   127   105   106    2
   128    38    37    2
   129   125   124    1
   130   125   126    1
   131    22    24   ar
   132    25    27   ar
   133   127   126    1
   134    39    36    1
   135    37    36    1
   136    37    45   am
   137    46    45    1
   138    46    47    1
   139    33    32    1
   140    24    26   ar
   141    36    35    1
   142    27    26   ar
   143    34    32    1
   144    48    47    2
   145    55    54   ar
   146    32    29    1
   147    54    56   ar
   148    54    53    1
   149    31    30    2
   150    29    30    1
   151    29    28    1
   152    53    50    1
   153    52    51    2
   154    50    51    1
   155    50    49    1
