@<TRIPOS>MOLECULE
tmp/2oc8A00.pdb
 157 151 0 0 0
SMALL
GASTEIGER

@<TRIPOS>ATOM
      1  N        207.7640   -5.6980   52.4190 N.3    43  GLN43      -0.1231
      2  CA       206.7170   -4.7830   51.9560 C.3    43  GLN43       0.1698
      3  C        206.4860   -3.4840   52.7390 C.2    43  GLN43       0.2593
      4  O        206.9330   -3.3310   53.8730 O.2    43  GLN43      -0.2718
      5  CB       205.3830   -5.5440   51.8500 C.3    43  GLN43       0.0381
      6  CG       204.8320   -6.0480   53.1860 C.3    43  GLN43       0.0905
      7  CD       203.6130   -6.9580   53.0480 C.2    43  GLN43       0.2608
      8  OE1      202.5290   -6.5370   52.6170 O.2    43  GLN43      -0.2717
      9  NE2      203.7790   -8.2070   53.4510 N.am   43  GLN43      -0.0878
     10  N        205.7580   -2.5650   52.1020 N.am   44  THR44      -0.1939
     11  CA       205.3970   -1.2730   52.6740 C.3    44  THR44       0.2028
     12  C        203.8900   -1.1680   52.7760 C.2    44  THR44       0.2642
     13  O        203.1710   -1.4960   51.8320 O.2    44  THR44      -0.2714
     14  CB       205.8730   -0.1050   51.7990 C.3    44  THR44       0.1808
     15  OG1      207.2800    0.0780   51.9800 O.3    44  THR44      -0.2208
     16  CG2      205.1520    1.1900   52.1620 C.3    44  THR44       0.0379
     17  N        203.4250   -0.7030   53.9230 N.am   45  PHE45      -0.1973
     18  CA       202.0150   -0.5240   54.1930 C.3    45  PHE45       0.1639
     19  C        201.8560    0.6020   55.2050 C.2    45  PHE45       0.2290
     20  O        202.7890    1.3750   55.4280 O.2    45  PHE45      -0.2864
     21  CB       201.3860   -1.8260   54.7210 C.3    45  PHE45       0.0560
     22  CG       202.2510   -2.5810   55.6950 C.ar   45  PHE45      -0.0200
     23  CD1      203.3820   -3.2580   55.2580 C.ar   45  PHE45      -0.0042
     24  CD2      201.9430   -2.5990   57.0470 C.ar   45  PHE45      -0.0042
     25  CE1      204.1920   -3.9330   56.1450 C.ar   45  PHE45      -0.0003
     26  CE2      202.7570   -3.2770   57.9530 C.ar   45  PHE45      -0.0003
     27  CZ       203.8800   -3.9440   57.4990 C.ar   45  PHE45      -0.0000
     28  N        198.1310   -4.3610   59.9880 N.3    57  VAL57      -0.1245
     29  CA       197.7700   -5.7130   59.5920 C.3    57  VAL57       0.1561
     30  C        198.8580   -6.7420   59.8890 C.2    57  VAL57       0.2260
     31  O        200.0240   -6.5660   59.5200 O.2    57  VAL57      -0.2867
     32  CB       197.4060   -5.7960   58.0950 C.3    57  VAL57       0.0252
     33  CG1      196.0640   -5.1550   57.8400 C.3    57  VAL57       0.0019
     34  CG2      198.4710   -5.1500   57.2440 C.3    57  VAL57       0.0019
     35  N        199.2390   -9.5070   58.5370 N.3    59  HIS59      -0.1241
     36  CA       199.7860  -10.0330   57.2880 C.3    59  HIS59       0.1621
     37  C        200.8740   -9.1300   56.7130 C.2    59  HIS59       0.2264
     38  O        201.4580   -9.4270   55.6780 O.2    59  HIS59      -0.2867
     39  CB       198.6830  -10.3330   56.2650 C.3    59  HIS59       0.0745
     40  CG       198.0230   -9.1230   55.6730 C.ar   59  HIS59       0.0817
     41  ND1      196.7550   -8.7300   56.0240 N.ar   59  HIS59      -0.2268
     42  CD2      198.4250   -8.2790   54.6920 C.ar   59  HIS59       0.1154
     43  CE1      196.3910   -7.6920   55.2830 C.ar   59  HIS59       0.1986
     44  NE2      197.3840   -7.4050   54.4670 N.ar   59  HIS59      -0.2212
     45  N        193.8400  -10.5750   62.3130 N.3    83  ASP83      -0.1239
     46  CA       194.8260  -10.0940   61.3420 C.3    83  ASP83       0.1674
     47  C        195.3580   -8.7370   61.7990 C.2    83  ASP83       0.2266
     48  O        195.6450   -7.8670   60.9800 O.2    83  ASP83      -0.2867
     49  CB       194.1800  -10.0200   59.9380 C.3    83  ASP83       0.1410
     50  CG       195.1790   -9.7330   58.8220 C.2    83  ASP83       0.3668
     51  OD1      196.3770  -10.0540   58.9540 O.co2  83  ASP83      -0.2456
     52  OD2      194.7420   -9.1940   57.7890 O.co2  83  ASP83      -0.2456
     53  N        182.9870   -4.4480   55.2320 N.3   125  ARG125     -0.1245
     54  CA       183.0190   -4.2110   53.7950 C.3   125  ARG125      0.1563
     55  C        182.4760   -2.8480   53.4720 C.2   125  ARG125      0.2260
     56  O        181.6960   -2.2860   54.2290 O.2   125  ARG125     -0.2867
     57  CB       182.1920   -5.2410   53.0440 C.3   125  ARG125      0.0307
     58  CG       182.8700   -6.5650   52.8370 C.3   125  ARG125      0.0489
     59  CD       184.1040   -6.4350   51.9700 C.3   125  ARG125      0.2205
     60  NE       184.6260   -7.7510   51.6090 N.pl3 125  ARG125     -0.0865
     61  CZ       184.1570   -8.4820   50.6020 C.cat 125  ARG125      0.5346
     62  NH1      183.1630   -8.0230   49.8440 N.pl3 125  ARG125      0.1354
     63  NH2      184.6500   -9.6940   50.3810 N.pl3 125  ARG125      0.1354
     64  N        193.8240   -1.6660   41.5170 N.3   134  ILE134     -0.1245
     65  CA       194.4180   -2.3000   42.6800 C.3   134  ILE134      0.1561
     66  C        195.7480   -1.6500   43.0360 C.2   134  ILE134      0.2260
     67  O        196.0180   -1.3820   44.1990 O.2   134  ILE134     -0.2867
     68  CB       194.5860   -3.8080   42.4250 C.3   134  ILE134      0.0252
     69  CG1      193.2550   -4.4820   42.6790 C.3   134  ILE134      0.0019
     70  CG2      195.6600   -4.4170   43.3130 C.3   134  ILE134      0.0019
     71  CD1      192.7080   -4.1300   44.0250 C.3   134  ILE134      0.0001
     72  N        195.5840    1.1750   45.4490 N.3   137  LEU137     -0.1231
     73  CA       195.3000    0.7850   46.8240 C.3   137  LEU137      0.1693
     74  C        196.4820    0.0830   47.4970 C.2   137  LEU137      0.2592
     75  O        196.5470   -0.0220   48.7250 O.2   137  LEU137     -0.2718
     76  CB       194.0710   -0.1180   46.8410 C.3   137  LEU137      0.0284
     77  CG       192.7810    0.4860   47.3970 C.3   137  LEU137      0.0019
     78  CD1      192.6570    1.9690   47.0790 C.3   137  LEU137      0.0001
     79  CD2      191.5980   -0.3150   46.8630 C.3   137  LEU137      0.0001
     80  N        197.4180   -0.4050   46.6950 N.am  138  LYS138     -0.1966
     81  CA       198.5690   -1.0980   47.2370 C.3   138  LYS138      0.1728
     82  C        199.3490   -0.1920   48.1690 C.2   138  LYS138      0.2617
     83  O        199.4950    1.0100   47.9290 O.2   138  LYS138     -0.2715
     84  CB       199.4720   -1.6210   46.1260 C.3   138  LYS138      0.0311
     85  CG       200.4150   -2.7010   46.6120 C.3   138  LYS138      0.0038
     86  CD       201.1820   -3.3120   45.4670 C.3   138  LYS138      0.0206
     87  CE       201.9730   -4.5240   45.9420 C.3   138  LYS138      0.1093
     88  NZ       202.8260   -5.1060   44.8630 N.3   138  LYS138     -0.1314
     89  N        199.8080   -0.7750   49.2670 N.am  139  GLY139     -0.1940
     90  CA       200.5620   -0.0210   50.2420 C.3   139  GLY139      0.2014
     91  C        199.6850    0.6390   51.2810 C.2   139  GLY139      0.2640
     92  O        200.1900    1.1840   52.2450 O.2   139  GLY139     -0.2714
     93  N        198.3730    0.5300   51.1360 N.am  140  SER140     -0.1935
     94  CA       197.4770    1.1540   52.0950 C.3   140  SER140      0.2055
     95  C        196.8970    0.2260   53.1690 C.2   140  SER140      0.2643
     96  O        196.0310    0.6370   53.9420 O.2   140  SER140     -0.2714
     97  CB       196.3780    1.8900   51.3400 C.3   140  SER140      0.2130
     98  OG       196.9740    2.7580   50.3780 O.3   140  SER140     -0.2179
     99  N        197.4070   -1.0040   53.2450 N.am  141  SER141     -0.1949
    100  CA       196.9450   -1.9800   54.2390 C.3   141  SER141      0.1924
    101  C        197.3090   -1.4640   55.6080 C.2   141  SER141      0.2314
    102  O        198.4680   -1.1480   55.8450 O.2   141  SER141     -0.2863
    103  CB       197.6330   -3.3240   54.0240 C.3   141  SER141      0.2116
    104  OG       197.1380   -3.6700   52.7360 O.3   141  SER141     -0.2180
    105  N        192.0840   -0.5840   56.6590 N.3   156  PHE156     -0.1227
    106  CA       192.0480   -1.2370   55.3480 C.3   156  PHE156      0.1736
    107  C        192.8320   -2.5400   55.4040 C.2   156  PHE156      0.2595
    108  O        193.9830   -2.5700   55.8420 O.2   156  PHE156     -0.2718
    109  CB       192.6090   -0.2940   54.2770 C.3   156  PHE156      0.0547
    110  CG       192.6560   -0.8810   52.8830 C.ar  156  PHE156     -0.0202
    111  CD1      191.5420   -1.4660   52.3170 C.ar  156  PHE156     -0.0042
    112  CD2      193.8230   -0.8100   52.1270 C.ar  156  PHE156     -0.0042
    113  CE1      191.5910   -1.9610   51.0190 C.ar  156  PHE156     -0.0003
    114  CE2      193.8730   -1.3050   50.8330 C.ar  156  PHE156     -0.0003
    115  CZ       192.7610   -1.8790   50.2810 C.ar  156  PHE156     -0.0000
    116  N        192.2040   -3.6220   54.9680 N.am  157  ARG157     -0.1966
    117  CA       192.8450   -4.9180   55.0170 C.3   157  ARG157      0.1729
    118  C        193.1240   -5.5590   53.6700 C.2   157  ARG157      0.2616
    119  O        194.2420   -6.0090   53.4070 O.2   157  ARG157     -0.2715
    120  CB       191.9860   -5.8570   55.8510 C.3   157  ARG157      0.0348
    121  CG       192.5430   -7.2350   55.9530 C.3   157  ARG157      0.0492
    122  CD       191.5670   -8.1650   56.5890 C.3   157  ARG157      0.2205
    123  NE       192.2120   -9.4530   56.7300 N.pl3 157  ARG157     -0.0865
    124  CZ       192.0740  -10.4550   55.8760 C.cat 157  ARG157      0.5346
    125  NH1      191.2820  -10.3370   54.8150 N.pl3 157  ARG157      0.1354
    126  NH2      192.8030  -11.5490   56.0430 N.pl3 157  ARG157      0.1354
    127  N        192.1000   -5.6480   52.8330 N.am  158  ALA158     -0.1963
    128  CA       192.2470   -6.2710   51.5230 C.3   158  ALA158      0.1728
    129  C        191.2900   -5.6410   50.5280 C.2   158  ALA158      0.2616
    130  O        190.2660   -5.0660   50.9130 O.2   158  ALA158     -0.2715
    131  CB       191.9690   -7.7660   51.6240 C.3   158  ALA158      0.0334
    132  N        191.6060   -5.7670   49.2460 N.am  159  ALA159     -0.1963
    133  CA       190.7540   -5.2000   48.2210 C.3   159  ALA159      0.1728
    134  C        189.8960   -6.2650   47.5880 C.2   159  ALA159      0.2616
    135  O        190.3190   -7.4130   47.4520 O.2   159  ALA159     -0.2715
    136  CB       191.5850   -4.5200   47.1750 C.3   159  ALA159      0.0334
    137  N        188.6690   -5.8810   47.2560 N.am  160  VAL160     -0.1963
    138  CA       187.6970   -6.7520   46.5930 C.3   160  VAL160      0.1727
    139  C        187.7770   -6.3200   45.1290 C.2   160  VAL160      0.2616
    140  O        187.1260   -5.3520   44.7140 O.2   160  VAL160     -0.2715
    141  CB       186.2840   -6.4910   47.1370 C.3   160  VAL160      0.0290
    142  CG1      185.2750   -7.3480   46.4300 C.3   160  VAL160      0.0023
    143  CG2      186.2500   -6.7380   48.6260 C.3   160  VAL160      0.0023
    144  N        188.6160   -7.0110   44.3640 N.am  161  CYS161     -0.1968
    145  CA       188.8370   -6.6680   42.9660 C.3   161  CYS161      0.1712
    146  C        188.5220   -7.7380   41.9270 C.2   161  CYS161      0.2296
    147  O        188.3560   -8.9200   42.2360 O.2   161  CYS161     -0.2864
    148  CB       190.2920   -6.2630   42.7800 C.3   161  CYS161      0.0983
    149  SG       191.4360   -7.6380   43.0370 S.3   161  CYS161     -0.0798
    150  N        187.8470   -4.8010   51.9070 N.3   170  ASP170     -0.1239
    151  CA       187.5890   -5.5430   53.1270 C.3   170  ASP170      0.1674
    152  C        188.4130   -4.8700   54.2070 C.2   170  ASP170      0.2266
    153  O        189.5920   -4.5810   53.9950 O.2   170  ASP170     -0.2867
    154  CB       188.0220   -6.9980   52.9750 C.3   170  ASP170      0.1410
    155  CG       187.7380   -7.8200   54.2170 C.2   170  ASP170      0.3668
    156  OD1      188.6310   -7.9350   55.0880 O.co2 170  ASP170     -0.2456
    157  OD2      186.6110   -8.3490   54.3290 O.co2 170  ASP170     -0.2456
@<TRIPOS>BOND
     1    64    65    1
     2   146   147    2
     3   146   145    1
     4    68    69    1
     5    68    65    1
     6    68    70    1
     7    69    71    1
     8    65    66    1
     9   148   145    1
    10   148   149    1
    11   145   144    1
    12    66    67    2
    13   144   139   am
    14   140   139    2
    15    88    87    1
    16   139   138    1
    17    72    73    1
    18    86    87    1
    19    86    85    1
    20    84    85    1
    21    84    81    1
    22   142   141    1
    23   138   141    1
    24   138   137    1
    25    80    81    1
    26    80    74   am
    27    73    76    1
    28    73    74    1
    29    76    77    1
    30    79    77    1
    31    78    77    1
    32   141   143    1
    33   136   133    1
    34    81    82    1
    35   137   134   am
    36   135   134    2
    37    74    75    2
    38   134   133    1
    39    83    82    2
    40    82    89   am
    41   133   132    1
    42   132   129   am
    43    89    90    1
    44    62    61    1
    45    90    91    1
    46   115   114   ar
    47   115   113   ar
    48    98    97    1
    49    63    61    1
    50   129   130    2
    51   129   128    1
    52    61    60    2
    53   114   112   ar
    54   113   111   ar
    55    93    91   am
    56    93    94    1
    57    91    92    2
    58    97    94    1
    59   128   131    1
    60   128   127    1
    61    60    59    1
    62    14    15    1
    63    14    16    1
    64    14    11    1
    65    13    12    2
    66     5     2    1
    67     5     6    1
    68   150   151    1
    69     2     1    1
    70     2     3    1
    71    59    58    1
    72    94    95    1
    73    10    11    1
    74    10     3   am
    75   112   110   ar
    76   111   110   ar
    77     8     7    2
    78    11    12    1
    79   104   103    1
    80     3     4    2
    81    12    17   am
    82   127   118   am
    83    58    57    1
    84   110   109    1
    85   154   151    1
    86   154   155    1
    87    57    54    1
    88     7     6    1
    89     7     9   am
    90   151   152    1
    91    95    99   am
    92    95    96    2
    93    99   100    1
    94   119   118    2
    95    55    54    1
    96    55    56    2
    97   118   117    1
    98    54    53    1
    99    17    18    1
   100   153   152    2
   101   103   100    1
   102    18    21    1
   103    18    19    1
   104   155   157   ar
   105   155   156   ar
   106   100   101    1
   107   109   106    1
   108    44    42   ar
   109    44    43   ar
   110    42    40   ar
   111    21    22    1
   112   125   124    1
   113   116   117    1
   114   116   107   am
   115   117   120    1
   116    19    20    2
   117    23    22   ar
   118    23    25   ar
   119    43    41   ar
   120   106   107    1
   121   106   105    1
   122   107   108    2
   123   101   102    2
   124    40    41   ar
   125    40    39    1
   126    38    37    2
   127    22    24   ar
   128   120   121    1
   129   124   126    1
   130   124   123    2
   131   121   122    1
   132    25    27   ar
   133    39    36    1
   134   122   123    1
   135    37    36    1
   136    24    26   ar
   137    34    32    1
   138    36    35    1
   139    27    26   ar
   140    52    50   ar
   141    33    32    1
   142    32    29    1
   143    50    51   ar
   144    50    49    1
   145    31    30    2
   146    29    30    1
   147    29    28    1
   148    49    46    1
   149    48    47    2
   150    46    47    1
   151    46    45    1
