@<TRIPOS>MOLECULE
tmp/2ocbA00.pdb
 181 177 0 0 0
SMALL
GASTEIGER

@<TRIPOS>ATOM
      1  N        -41.6280   14.4890   21.8340 N.3    14  GLY14      -0.1210
      2  CA       -40.6740   13.7460   22.6370 C.3    14  GLY14       0.1956
      3  C        -40.1750   12.5380   21.8710 C.2    14  GLY14       0.2612
      4  O        -40.9500   11.8600   21.2230 O.2    14  GLY14      -0.2717
      5  N        -38.8780   12.2990   21.9080 N.am   15  GLY15      -0.1942
      6  CA       -38.2860   11.0930   21.3130 C.3    15  GLY15       0.2014
      7  C        -37.8140   11.1830   19.8510 C.2    15  GLY15       0.2639
      8  O        -37.1920   10.2490   19.3630 O.2    15  GLY15      -0.2714
      9  N        -38.0660   12.3110   19.1760 N.am   16  VAL16      -0.1963
     10  CA       -37.8700   12.4050   17.7170 C.3    16  VAL16       0.1727
     11  C        -36.3830   12.4870   17.3150 C.2    16  VAL16       0.2617
     12  O        -36.0150   12.1050   16.2120 O.2    16  VAL16      -0.2715
     13  CB       -38.7250   13.5930   17.0520 C.3    16  VAL16       0.0290
     14  CG1      -40.2020   13.3530   17.2380 C.3    16  VAL16       0.0023
     15  CG2      -38.2900   15.0030   17.5500 C.3    16  VAL16       0.0023
     16  N        -35.5400   12.9960   18.2120 N.am   17  GLY17      -0.1940
     17  CA       -34.1140   13.1250   17.9750 C.3    17  GLY17       0.2014
     18  C        -33.5550   14.5370   17.9890 C.2    17  GLY17       0.2639
     19  O        -32.4350   14.7310   17.5750 O.2    17  GLY17      -0.2714
     20  N        -34.3130   15.5150   18.4980 N.am   18  LYS18      -0.1963
     21  CA       -33.8720   16.9260   18.5040 C.3    18  LYS18       0.1728
     22  C        -32.5270   17.1890   19.1500 C.2    18  LYS18       0.2617
     23  O        -31.6670   17.8750   18.5700 O.2    18  LYS18      -0.2715
     24  CB       -34.9140   17.8370   19.1640 C.3    18  LYS18       0.0311
     25  CG       -36.3070   17.7760   18.5600 C.3    18  LYS18       0.0038
     26  CD       -37.2610   18.7050   19.2560 C.3    18  LYS18       0.0206
     27  CE       -37.6040   18.2800   20.6890 C.3    18  LYS18       0.1093
     28  NZ       -38.2170   16.9180   20.7660 N.3    18  LYS18      -0.1314
     29  N        -32.3560   16.7110   20.3770 N.am   19  SER19      -0.1936
     30  CA       -31.0990   16.8870   21.0920 C.3    19  SER19       0.2055
     31  C        -29.9630   16.0900   20.4700 C.2    19  SER19       0.2643
     32  O        -28.8440   16.5480   20.4350 O.2    19  SER19      -0.2714
     33  CB       -31.2450   16.4360   22.5510 C.3    19  SER19       0.2130
     34  OG       -32.3690   17.0170   23.1190 O.3    19  SER19      -0.2179
     35  N        -30.2630   14.8950   20.0180 N.am   20  SER20      -0.1949
     36  CA       -29.3120   14.0920   19.2390 C.3    20  SER20       0.1924
     37  C        -28.8990   14.7850   17.9670 C.2    20  SER20       0.2314
     38  O        -27.7160   14.7710   17.5980 O.2    20  SER20      -0.2863
     39  CB       -29.9320   12.7520   18.8790 C.3    20  SER20       0.2116
     40  OG       -30.1880   12.0200   20.0490 O.3    20  SER20      -0.2180
     41  N        -22.9230   11.1300   19.4700 N.3    30  PHE30      -0.1227
     42  CA       -24.2610   10.4960   19.5240 C.3    30  PHE30       0.1736
     43  C        -24.3740    9.5590   20.7470 C.2    30  PHE30       0.2595
     44  O        -23.5230    8.6920   20.9600 O.2    30  PHE30      -0.2718
     45  CB       -24.5210    9.6740   18.2770 C.3    30  PHE30       0.0547
     46  CG       -25.8900    9.0200   18.2290 C.ar   30  PHE30      -0.0202
     47  CD1      -27.0250    9.7640   17.9720 C.ar   30  PHE30      -0.0042
     48  CD2      -26.0320    7.6520   18.4010 C.ar   30  PHE30      -0.0042
     49  CE1      -28.2650    9.1620   17.8990 C.ar   30  PHE30      -0.0003
     50  CE2      -27.2820    7.0420   18.3330 C.ar   30  PHE30      -0.0003
     51  CZ       -28.3850    7.7890   18.0730 C.ar   30  PHE30      -0.0000
     52  N        -25.4330    9.7530   21.5360 N.am   31  ASP31      -0.1960
     53  CA       -25.7990    8.8640   22.6210 C.3    31  ASP31       0.1840
     54  C        -27.0100    8.0000   22.2330 C.2    31  ASP31       0.2623
     55  O        -28.1170    8.5130   21.9650 O.2    31  ASP31      -0.2715
     56  CB       -26.1350    9.7020   23.8430 C.3    31  ASP31       0.1450
     57  CG       -26.1940    8.9000   25.1230 C.2    31  ASP31       0.3671
     58  OD1      -26.7150    7.7420   25.1310 O.co2  31  ASP31      -0.2456
     59  OD2      -25.7360    9.4690   26.1370 O.co2  31  ASP31      -0.2456
     60  N        -26.8000    6.6910   22.2200 N.am   32  SER32      -0.1936
     61  CA       -27.8750    5.7200   21.9980 C.3    32  SER32       0.2055
     62  C        -28.9840    5.7290   23.1000 C.2    32  SER32       0.2643
     63  O        -30.1430    5.3620   22.8390 O.2    32  SER32      -0.2714
     64  CB       -27.2640    4.3150   21.9020 C.3    32  SER32       0.2130
     65  OG       -28.2840    3.3380   21.7520 O.3    32  SER32      -0.2179
     66  N        -28.6120    6.1210   24.3190 N.am   33  GLN33      -0.1963
     67  CA       -29.5330    6.1160   25.4710 C.3    33  GLN33       0.1733
     68  C        -29.7930    7.5610   25.9330 C.2    33  GLN33       0.2616
     69  O        -29.4290    7.9560   27.0680 O.2    33  GLN33      -0.2715
     70  CB       -28.9560    5.2580   26.6180 C.3    33  GLN33       0.0408
     71  CG       -28.8050    3.7660   26.3290 C.3    33  GLN33       0.0908
     72  CD       -30.1110    3.1200   25.9440 C.2    33  GLN33       0.2608
     73  OE1      -31.1030    3.2710   26.6840 O.2    33  GLN33      -0.2717
     74  NE2      -30.1840    2.5320   24.7920 N.am   33  GLN33      -0.0878
     75  N        -30.4040    8.3540   25.0560 N.am   34  ALA34      -0.1963
     76  CA       -30.5830    9.8000   25.3280 C.3    34  ALA34       0.1728
     77  C        -31.8240   10.0330   26.2040 C.2    34  ALA34       0.2616
     78  O        -32.8870    9.3910   26.0220 O.2    34  ALA34      -0.2715
     79  CB       -30.6550   10.6090   24.0360 C.3    34  ALA34       0.0334
     80  N        -31.6650   10.9480   27.1590 N.am   35  PHE35      -0.1960
     81  CA       -32.6560   11.1860   28.1900 C.3    35  PHE35       0.1771
     82  C        -33.4800   12.4080   27.7970 C.2    35  PHE35       0.2620
     83  O        -32.9370   13.4110   27.3140 O.2    35  PHE35      -0.2715
     84  CB       -31.9590   11.4010   29.5440 C.3    35  PHE35       0.0574
     85  CG       -30.8560   10.4120   29.8110 C.ar   35  PHE35      -0.0200
     86  CD1      -31.1310    9.1870   30.4280 C.ar   35  PHE35      -0.0042
     87  CD2      -29.5400   10.6810   29.3900 C.ar   35  PHE35      -0.0042
     88  CE1      -30.1220    8.2560   30.6530 C.ar   35  PHE35      -0.0003
     89  CE2      -28.5070    9.7450   29.6070 C.ar   35  PHE35      -0.0003
     90  CZ       -28.8030    8.5270   30.2460 C.ar   35  PHE35      -0.0000
     91  N        -34.7860   12.3090   28.0090 N.am   36  HIS36      -0.1959
     92  CA       -35.7140   13.4190   27.7810 C.3    36  HIS36       0.1787
     93  C        -35.1720   14.7490   28.2750 C.2    36  HIS36       0.2620
     94  O        -34.5370   14.8360   29.3440 O.2    36  HIS36      -0.2715
     95  CB       -37.0730   13.1230   28.4140 C.3    36  HIS36       0.0785
     96  CG       -37.8180   12.0210   27.7290 C.ar   36  HIS36       0.0821
     97  ND1      -38.4610   12.1960   26.5230 N.ar   36  HIS36      -0.2267
     98  CD2      -37.9730   10.7190   28.0490 C.ar   36  HIS36       0.1154
     99  CE1      -39.0050   11.0560   26.1430 C.ar   36  HIS36       0.1986
    100  NE2      -38.7180   10.1400   27.0500 N.ar   36  HIS36      -0.2212
    101  N        -35.3550   15.7690   27.4340 N.am   37  THR37      -0.1951
    102  CA       -35.0610   17.1690   27.7990 C.3    37  THR37       0.1897
    103  C        -36.2550   17.6370   28.6240 C.2    37  THR37       0.2313
    104  O        -37.4060   17.2900   28.2980 O.2    37  THR37      -0.2863
    105  CB       -34.8280   18.0100   26.5180 C.3    37  THR37       0.1794
    106  OG1      -33.8140   17.3620   25.7700 O.3    37  THR37      -0.2208
    107  CG2      -34.3820   19.5100   26.7790 C.3    37  THR37       0.0378
    108  N        -35.3640   22.0830   22.8680 N.3    61  THR61      -0.1218
    109  CA       -36.5320   22.1610   23.7480 C.3    61  THR61       0.1862
    110  C        -37.0550   20.7480   24.1450 C.2    61  THR61       0.2287
    111  O        -36.8290   19.7440   23.4470 O.2    61  THR61      -0.2866
    112  CB       -37.6700   22.9280   23.0780 C.3    61  THR61       0.1770
    113  OG1      -38.1580   22.2050   21.9350 O.3    61  THR61      -0.2211
    114  CG2      -37.2220   24.3160   22.6260 C.3    61  THR61       0.0375
    115  N        -39.7750   18.1310   24.1080 N.3    63  GLY63      -0.1210
    116  CA       -40.8340   17.8210   23.2000 C.3    63  GLY63       0.1956
    117  C        -42.1190   17.4270   23.9180 C.2    63  GLY63       0.2611
    118  O        -43.1820   17.5170   23.3510 O.2    63  GLY63      -0.2717
    119  N        -41.9960   16.9910   25.1770 N.am   64  GLN64      -0.1979
    120  CA       -43.1430   16.5400   25.9780 C.3    64  GLN64       0.1601
    121  C        -44.0460   17.6980   26.4200 C.2    64  GLN64       0.2287
    122  O        -43.5550   18.7790   26.8380 O.2    64  GLN64      -0.2864
    123  CB       -42.6630   15.7600   27.1890 C.3    64  GLN64       0.0394
    124  CG       -42.0120   14.4350   26.8440 C.3    64  GLN64       0.0908
    125  CD       -41.4880   13.6950   28.0740 C.2    64  GLN64       0.2608
    126  OE1      -42.0680   12.7120   28.5000 O.2    64  GLN64      -0.2717
    127  NE2      -40.3930   14.1610   28.6250 N.am   64  GLN64      -0.0878
    128  N        -36.3850   12.7360   10.9970 N.3   122  ASN122     -0.1225
    129  CA       -35.1950   12.0850   11.5660 C.3   122  ASN122      0.1785
    130  C        -35.3630   10.5540   11.6650 C.2   122  ASN122      0.2597
    131  O        -36.4620   10.0490   11.5050 O.2   122  ASN122     -0.2718
    132  CB       -34.8950   12.6760   12.9400 C.3   122  ASN122      0.1169
    133  CG       -33.4970   12.3500   13.4380 C.2   122  ASN122      0.2627
    134  OD1      -32.5600   12.3360   12.6810 O.2   122  ASN122     -0.2716
    135  ND2      -33.3720   12.0850   14.7260 N.am  122  ASN122     -0.0877
    136  N        -34.2520    9.8640   11.9450 N.am  123  LYS123     -0.1980
    137  CA       -34.2130    8.4170   12.1900 C.3   123  LYS123      0.1596
    138  C        -34.3750    7.6510   10.8850 C.2   123  LYS123      0.2287
    139  O        -35.1040    6.6600   10.8280 O.2   123  LYS123     -0.2864
    140  CB       -35.2940    7.9740   13.2220 C.3   123  LYS123      0.0298
    141  CG       -35.2870    8.7730   14.5180 C.3   123  LYS123      0.0038
    142  CD       -35.7140    7.9370   15.7040 C.3   123  LYS123      0.0206
    143  CE       -35.8210    8.7940   16.9270 C.3   123  LYS123      0.1093
    144  NZ       -35.6800    8.0430   18.2150 N.3   123  LYS123     -0.1314
    145  N        -32.0780    6.1210    9.1220 N.3   125  ASP125     -0.1225
    146  CA       -31.3110    4.8780    9.3000 C.3   125  ASP125      0.1805
    147  C        -32.1000    3.6680    9.7960 C.2   125  ASP125      0.2597
    148  O        -31.6960    2.5390    9.5560 O.2   125  ASP125     -0.2718
    149  CB       -30.1480    5.1250   10.2590 C.3   125  ASP125      0.1424
    150  CG       -30.6050    5.6010   11.6410 C.2   125  ASP125      0.3668
    151  OD1      -30.6430    6.8430   11.8640 O.co2 125  ASP125     -0.2456
    152  OD2      -30.9210    4.7360   12.4980 O.co2 125  ASP125     -0.2456
    153  N        -33.2100    3.9020   10.4930 N.am  126  LYS126     -0.1979
    154  CA       -34.0100    2.8090   11.0700 C.3   126  LYS126      0.1596
    155  C        -34.8500    2.1220   10.0080 C.2   126  LYS126      0.2287
    156  O        -35.3110    2.7710    9.0560 O.2   126  LYS126     -0.2864
    157  CB       -34.8910    3.3280   12.2250 C.3   126  LYS126      0.0298
    158  CG       -34.0700    3.7990   13.4370 C.3   126  LYS126      0.0038
    159  CD       -34.9310    4.3710   14.5640 C.3   126  LYS126      0.0206
    160  CE       -35.4880    3.2930   15.4850 C.3   126  LYS126      0.1093
    161  NZ       -36.1450    3.8820   16.6900 N.3   126  LYS126     -0.1314
    162  N        -30.4090   11.5700    9.9680 N.3   152  SER152     -0.1202
    163  CA       -30.1470   10.6360   11.0230 C.3   152  SER152      0.2020
    164  C        -29.0320   11.1820   11.8280 C.2   152  SER152      0.2619
    165  O        -27.9020   11.1820   11.3580 O.2   152  SER152     -0.2717
    166  CB       -29.7540    9.2570   10.4780 C.3   152  SER152      0.2103
    167  OG       -28.8360    8.6060   11.3640 O.3   152  SER152     -0.2182
    168  N        -29.3650   11.6520   13.0410 N.am  153  ALA153     -0.1965
    169  CA       -28.3710   11.9640   14.0900 C.3   153  ALA153      0.1728
    170  C        -27.4010   10.8150   14.3160 C.2   153  ALA153      0.2616
    171  O        -26.2130   11.0370   14.5520 O.2   153  ALA153     -0.2715
    172  CB       -29.0740   12.2900   15.4080 C.3   153  ALA153      0.0334
    173  N        -27.9230    9.5950   14.2570 N.am  154  LYS154     -0.1977
    174  CA       -27.1390    8.3910   14.5290 C.3   154  LYS154      0.1596
    175  C        -26.0010    8.1970   13.5350 C.2   154  LYS154      0.2287
    176  O        -24.8400    8.0310   13.9400 O.2   154  LYS154     -0.2864
    177  CB       -28.0420    7.1630   14.5190 C.3   154  LYS154      0.0298
    178  CG       -27.2910    5.8830   14.8070 C.3   154  LYS154      0.0038
    179  CD       -28.1830    4.6770   14.8870 C.3   154  LYS154      0.0206
    180  CE       -27.3090    3.4120   15.0490 C.3   154  LYS154      0.1093
    181  NZ       -28.0470    2.3230   15.7010 N.3   154  LYS154     -0.1314
@<TRIPOS>BOND
     1   156   155    2
     2   145   146    1
     3   146   147    1
     4   146   149    1
     5   148   147    2
     6   147   153   am
     7   162   163    1
     8   155   154    1
     9   149   150    1
    10   166   163    1
    11   166   167    1
    12   153   154    1
    13   139   138    2
    14   138   137    1
    15   128   129    1
    16   163   164    1
    17   154   157    1
    18   165   164    2
    19   131   130    2
    20   129   130    1
    21   129   132    1
    22   150   151   ar
    23   150   152   ar
    24   130   136   am
    25   164   168   am
    26   136   137    1
    27   137   140    1
    28   157   158    1
    29   134   133    2
    30   132   133    1
    31   168   169    1
    32   140   141    1
    33   158   159    1
    34   133   135   am
    35   175   176    2
    36   175   174    1
    37   169   170    1
    38   169   172    1
    39   173   170   am
    40   173   174    1
    41   170   171    2
    42   141   142    1
    43   177   174    1
    44   177   178    1
    45   159   160    1
    46   178   179    1
    47   179   180    1
    48   180   181    1
    49   160   161    1
    50   142   143    1
    51    12    11    2
    52   143   144    1
    53    13    14    1
    54    13    15    1
    55    13    10    1
    56    11    10    1
    57    11    16   am
    58    19    18    2
    59    38    37    2
    60    10     9    1
    61    49    47   ar
    62    49    51   ar
    63    37    36    1
    64    47    46   ar
    65    17    18    1
    66    17    16    1
    67    18    20   am
    68    51    50   ar
    69    46    45    1
    70    46    48   ar
    71    45    42    1
    72    50    48   ar
    73    20    21    1
    74    21    22    1
    75    21    24    1
    76    25    24    1
    77    25    26    1
    78    23    22    2
    79    39    36    1
    80    39    40    1
    81    22    29   am
    82     9     7   am
    83    36    35    1
    84    26    27    1
    85     8     7    2
    86    41    42    1
    87    42    43    1
    88     7     6    1
    89    35    31   am
    90    29    30    1
    91    32    31    2
    92    31    30    1
    93    27    28    1
    94    43    44    2
    95    43    52   am
    96    30    33    1
    97     4     3    2
    98     6     5    1
    99    52    53    1
   100    65    64    1
   101     1     2    1
   102     3     5   am
   103     3     2    1
   104    64    61    1
   105   113   112    1
   106    55    54    2
   107    61    60    1
   108    61    62    1
   109    60    54   am
   110    54    53    1
   111    33    34    1
   112    53    56    1
   113   114   112    1
   114    63    62    2
   115   108   109    1
   116   112   109    1
   117    62    66   am
   118   116   117    1
   119   116   115    1
   120   118   117    2
   121   111   110    2
   122   109   110    1
   123    56    57    1
   124   117   119   am
   125    79    76    1
   126    66    67    1
   127    74    72   am
   128    75    76    1
   129    75    68   am
   130    57    58   ar
   131    57    59   ar
   132   119   120    1
   133    76    77    1
   134    67    68    1
   135    67    70    1
   136   106   105    1
   137    68    69    2
   138    72    71    1
   139    72    73    2
   140   120   121    1
   141   120   123    1
   142    78    77    2
   143    99    97   ar
   144    99   100   ar
   145    77    80   am
   146    71    70    1
   147   121   122    2
   148   105   107    1
   149   105   102    1
   150    97    96   ar
   151   124   123    1
   152   124   125    1
   153   100    98   ar
   154    80    81    1
   155    83    82    2
   156   101   102    1
   157   101    93   am
   158    96    98   ar
   159    96    95    1
   160    92    91    1
   161    92    93    1
   162    92    95    1
   163    82    91   am
   164    82    81    1
   165   102   103    1
   166   125   126    2
   167   125   127   am
   168    81    84    1
   169    93    94    2
   170   104   103    2
   171    87    89   ar
   172    87    85   ar
   173    84    85    1
   174    89    90   ar
   175    85    86   ar
   176    90    88   ar
   177    86    88   ar
