@<TRIPOS>MOLECULE
tmp/2ociA00.pdb
 127 123 0 0 0
SMALL
GASTEIGER

@<TRIPOS>ATOM
      1  N        -23.1600  169.7370  -18.9130 N.3    31  GLY31      -0.1210
      2  CA       -23.9640  170.4640  -19.8780 C.3    31  GLY31       0.1956
      3  C        -25.4460  170.3970  -19.5510 C.2    31  GLY31       0.2611
      4  O        -25.8360  170.0390  -18.4390 O.2    31  GLY31      -0.2717
      5  N        -26.2700  170.7360  -20.5350 N.am   32  MET32      -0.1979
      6  CA       -27.7200  170.7400  -20.3900 C.3    32  MET32       0.1605
      7  C        -28.2610  169.4260  -19.8490 C.2    32  MET32       0.2287
      8  O        -27.9950  168.3630  -20.4050 O.2    32  MET32      -0.2864
      9  CB       -28.3640  171.0510  -21.7420 C.3    32  MET32       0.0413
     10  CG       -29.8750  171.1130  -21.7190 C.3    32  MET32       0.0598
     11  SD       -30.6320  169.6400  -22.4130 S.3    32  MET32      -0.1393
     12  CE       -30.5330  170.0150  -24.1680 C.3    32  MET32       0.0692
     13  N        -18.0980  171.4020  -19.8460 N.3   101  TRP101     -0.1227
     14  CA       -18.6010  170.8010  -21.0730 C.3   101  TRP101      0.1737
     15  C        -19.8970  171.4170  -21.5850 C.2   101  TRP101      0.2596
     16  O        -20.8970  171.4590  -20.8740 O.2   101  TRP101     -0.2718
     17  CB       -18.8120  169.2950  -20.8670 C.3   101  TRP101      0.0564
     18  CG       -19.3550  168.5740  -22.0800 C.ar  101  TRP101      0.0003
     19  CD1      -19.0380  168.8140  -23.3870 C.ar  101  TRP101      0.0946
     20  CD2      -20.2340  167.4410  -22.0850 C.ar  101  TRP101      0.0152
     21  NE1      -19.6610  167.8990  -24.2050 N.ar  101  TRP101     -0.2442
     22  CE2      -20.4000  167.0450  -23.4320 C.ar  101  TRP101      0.0810
     23  CE3      -20.8940  166.7180  -21.0800 C.ar  101  TRP101      0.0012
     24  CZ2      -21.2010  165.9560  -23.8020 C.ar  101  TRP101      0.0191
     25  CZ3      -21.6930  165.6310  -21.4490 C.ar  101  TRP101      0.0001
     26  CH2      -21.8380  165.2640  -22.7980 C.ar  101  TRP101      0.0015
     27  N        -19.8660  171.9030  -22.8240 N.am  102  SER102     -0.1938
     28  CA       -21.0530  172.4620  -23.4600 C.3   102  SER102      0.2055
     29  C        -21.6370  173.6210  -22.6470 C.2   102  SER102      0.2643
     30  O        -20.9630  174.6330  -22.4390 O.2   102  SER102     -0.2714
     31  CB       -22.0800  171.3340  -23.6280 C.3   102  SER102      0.2130
     32  OG       -22.8240  171.4820  -24.8200 O.3   102  SER102     -0.2179
     33  N        -22.8810  173.4870  -22.1870 N.am  103  ASP103     -0.1971
     34  CA       -23.4790  174.5490  -21.3780 C.3   103  ASP103      0.1709
     35  C        -22.5730  174.7970  -20.1750 C.2   103  ASP103      0.2293
     36  O        -22.5130  175.9080  -19.6530 O.2   103  ASP103     -0.2864
     37  CB       -24.8850  174.1640  -20.8890 C.3   103  ASP103      0.1436
     38  CG       -25.9890  174.5820  -21.8550 C.2   103  ASP103      0.3671
     39  OD1      -27.1640  174.5690  -21.4380 O.co2 103  ASP103     -0.2456
     40  OD2      -25.6980  174.9220  -23.0240 O.co2 103  ASP103     -0.2456
     41  N        -16.9740  172.1770  -26.4880 N.3   126  GLY126     -0.1225
     42  CA       -18.3550  172.1370  -26.9340 C.3   126  GLY126      0.1811
     43  C        -19.1840  173.3610  -26.5810 C.2   126  GLY126      0.2280
     44  O        -20.4070  173.3320  -26.6940 O.2   126  GLY126     -0.2866
     45  N        -20.5200  177.4310  -26.8660 N.3   128  ASN128     -0.1240
     46  CA       -20.8050  178.4430  -27.8740 C.3   128  ASN128      0.1653
     47  C        -21.1660  179.7270  -27.1310 C.2   128  ASN128      0.2266
     48  O        -22.0380  179.7280  -26.2560 O.2   128  ASN128     -0.2867
     49  CB       -21.9390  177.9940  -28.8160 C.3   128  ASN128      0.1155
     50  CG       -23.2470  177.7050  -28.0930 C.2   128  ASN128      0.2627
     51  OD1      -23.3190  176.8290  -27.2330 O.2   128  ASN128     -0.2716
     52  ND2      -24.2960  178.4380  -28.4580 N.am  128  ASN128     -0.0877
     53  N        -27.2600  177.7390  -35.6760 N.3   135  ASP135     -0.1239
     54  CA       -27.4170  177.1360  -34.3560 C.3   135  ASP135      0.1674
     55  C        -28.8980  176.8700  -34.0790 C.2   135  ASP135      0.2266
     56  O        -29.2570  175.8370  -33.5130 O.2   135  ASP135     -0.2867
     57  CB       -26.8410  178.0600  -33.2730 C.3   135  ASP135      0.1410
     58  CG       -25.3310  178.2430  -33.3970 C.2   135  ASP135      0.3668
     59  OD1      -24.8580  179.4000  -33.3750 O.co2 135  ASP135     -0.2456
     60  OD2      -24.6130  177.2280  -33.5070 O.co2 135  ASP135     -0.2456
     61  N        -30.1880  173.7310  -35.1990 N.3   138  ILE138     -0.1231
     62  CA       -29.6770  172.6710  -34.3430 C.3   138  ILE138      0.1692
     63  C        -30.4520  172.4890  -33.0370 C.2   138  ILE138      0.2592
     64  O        -30.9170  171.3870  -32.7510 O.2   138  ILE138     -0.2718
     65  CB       -28.1870  172.8960  -34.0130 C.3   138  ILE138      0.0266
     66  CG1      -27.3730  172.9240  -35.3100 C.3   138  ILE138      0.0019
     67  CG2      -27.6830  171.7880  -33.0980 C.3   138  ILE138      0.0020
     68  CD1      -25.9160  173.2820  -35.1220 C.3   138  ILE138      0.0001
     69  N        -30.6040  173.5470  -32.2420 N.am  139  TYR139     -0.1976
     70  CA       -31.3160  173.3810  -30.9810 C.3   139  TYR139      0.1639
     71  C        -32.8190  173.1610  -31.1290 C.2   139  TYR139      0.2290
     72  O        -33.4290  172.4870  -30.3000 O.2   139  TYR139     -0.2864
     73  CB       -31.0000  174.5330  -30.0030 C.3   139  TYR139      0.0560
     74  CG       -31.3300  175.9340  -30.4580 C.ar  139  TYR139     -0.0198
     75  CD1      -32.6510  176.3860  -30.4960 C.ar  139  TYR139     -0.0009
     76  CD2      -30.3160  176.8320  -30.7970 C.ar  139  TYR139     -0.0009
     77  CE1      -32.9550  177.7000  -30.8530 C.ar  139  TYR139      0.0417
     78  CE2      -30.6090  178.1470  -31.1580 C.ar  139  TYR139      0.0417
     79  CZ       -31.9300  178.5750  -31.1820 C.ar  139  TYR139      0.1957
     80  OH       -32.2290  179.8740  -31.5320 O.3   139  TYR139     -0.2866
     81  N        -33.5930  169.5140  -31.5260 N.3   142  ILE142     -0.1245
     82  CA       -33.4450  168.5960  -30.4020 C.3   142  ILE142      0.1561
     83  C        -34.4970  168.8190  -29.3220 C.2   142  ILE142      0.2260
     84  O        -34.4770  168.1610  -28.2830 O.2   142  ILE142     -0.2867
     85  CB       -32.0500  168.7160  -29.7550 C.3   142  ILE142      0.0252
     86  CG1      -31.8630  170.1130  -29.1660 C.3   142  ILE142      0.0019
     87  CG2      -30.9730  168.4370  -30.7890 C.3   142  ILE142      0.0019
     88  CD1      -30.5670  170.2750  -28.4260 C.3   142  ILE142      0.0001
     89  N        -35.4750  174.2730  -22.0180 N.3   172  TRP172     -0.1241
     90  CA       -34.1040  174.6550  -22.3400 C.3   172  TRP172      0.1605
     91  C        -34.0860  175.3170  -23.7170 C.2   172  TRP172      0.2264
     92  O        -33.4710  176.3660  -23.9020 O.2   172  TRP172     -0.2867
     93  CB       -33.1860  173.4330  -22.3520 C.3   172  TRP172      0.0550
     94  CG       -31.7690  173.7650  -22.7280 C.ar  172  TRP172      0.0003
     95  CD1      -30.8060  174.2970  -21.9180 C.ar  172  TRP172      0.0946
     96  CD2      -31.1720  173.6310  -24.0250 C.ar  172  TRP172      0.0152
     97  NE1      -29.6450  174.5040  -22.6290 N.ar  172  TRP172     -0.2442
     98  CE2      -29.8430  174.1040  -23.9250 C.ar  172  TRP172      0.0810
     99  CE3      -31.6320  173.1610  -25.2640 C.ar  172  TRP172      0.0012
    100  CZ2      -28.9680  174.1180  -25.0180 C.ar  172  TRP172      0.0191
    101  CZ3      -30.7600  173.1750  -26.3520 C.ar  172  TRP172      0.0001
    102  CH2      -29.4440  173.6520  -26.2180 C.ar  172  TRP172      0.0015
    103  N        -23.1980  169.1430  -33.1220 N.3   209  LEU209     -0.1231
    104  CA       -24.0110  170.1710  -32.4800 C.3   209  LEU209      0.1693
    105  C        -23.4050  171.5720  -32.5110 C.2   209  LEU209      0.2591
    106  O        -24.1150  172.5580  -32.6960 O.2   209  LEU209     -0.2718
    107  CB       -24.2910  169.7730  -31.0300 C.3   209  LEU209      0.0284
    108  CG       -25.0000  168.4300  -30.8180 C.3   209  LEU209      0.0019
    109  CD1      -25.0600  168.1080  -29.3290 C.3   209  LEU209      0.0001
    110  CD2      -26.4040  168.4860  -31.4110 C.3   209  LEU209      0.0001
    111  N        -22.0930  171.6580  -32.3370 N.am  210  VAL210     -0.1980
    112  CA       -21.4240  172.9490  -32.3140 C.3   210  VAL210      0.1595
    113  C        -20.4470  173.1300  -33.4660 C.2   210  VAL210      0.2287
    114  O        -19.4020  172.4890  -33.5020 O.2   210  VAL210     -0.2864
    115  CB       -20.6450  173.1370  -30.9860 C.3   210  VAL210      0.0276
    116  CG1      -19.9840  174.5100  -30.9550 C.3   210  VAL210      0.0022
    117  CG2      -21.5850  172.9600  -29.8000 C.3   210  VAL210      0.0022
    118  N        -19.2360  165.6460  -30.0260 N.3   235  HIS235     -0.1241
    119  CA       -19.5750  166.5060  -28.8940 C.3   235  HIS235      0.1621
    120  C        -19.1700  165.9180  -27.5410 C.2   235  HIS235      0.2264
    121  O        -18.7650  166.6460  -26.6360 O.2   235  HIS235     -0.2867
    122  CB       -21.0750  166.8230  -28.8900 C.3   235  HIS235      0.0745
    123  CG       -21.4320  168.0050  -28.0400 C.ar  235  HIS235      0.0817
    124  ND1      -20.9560  169.2740  -28.2960 N.ar  235  HIS235     -0.2268
    125  CD2      -22.2040  168.1090  -26.9320 C.ar  235  HIS235      0.1154
    126  CE1      -21.4210  170.1080  -27.3820 C.ar  235  HIS235      0.1986
    127  NE2      -22.1800  169.4270  -26.5430 N.ar  235  HIS235     -0.2212
@<TRIPOS>BOND
     1    53    54    1
     2    66    68    1
     3    66    65    1
     4    61    62    1
     5    54    55    1
     6    54    57    1
     7    62    65    1
     8    62    63    1
     9    55    56    2
    10    65    67    1
    11    60    58   ar
    12   114   113    2
    13   113   112    1
    14    58    59   ar
    15    58    57    1
    16   103   104    1
    17    63    64    2
    18    63    69   am
    19   106   105    2
    20   105   104    1
    21   105   111   am
    22   104   107    1
    23   111   112    1
    24   112   115    1
    25    69    70    1
    26    80    79    1
    27    81    82    1
    28   110   108    1
    29    79    78   ar
    30    79    77   ar
    31    78    76   ar
    32    71    70    1
    33    71    72    2
    34   107   108    1
    35   115   116    1
    36   115   117    1
    37    70    73    1
    38    77    75   ar
    39   108   109    1
    40    76    74   ar
    41    87    85    1
    42    75    74   ar
    43    74    73    1
    44    82    85    1
    45    82    83    1
    46   118   119    1
    47    85    86    1
    48    83    84    2
    49    86    88    1
    50   119   122    1
    51   119   120    1
    52   122   123    1
    53    49    50    1
    54    49    46    1
    55    52    50   am
    56   124   123   ar
    57   124   126   ar
    58    50    51    2
    59   123   125   ar
    60    46    47    1
    61    46    45    1
    62   120   121    2
    63   126   127   ar
    64    47    48    2
    65    42    43    1
    66    42    41    1
    67   125   127   ar
    68    44    43    2
    69   101   102   ar
    70   101    99   ar
    71   102   100   ar
    72    99    96   ar
    73   100    98   ar
    74    32    31    1
    75    21    22   ar
    76    21    19   ar
    77    12    11    1
    78    96    98   ar
    79    96    94   ar
    80    98    97   ar
    81    92    91    2
    82    24    22   ar
    83    24    26   ar
    84    91    90    1
    85    31    28    1
    86    28    27    1
    87    28    29    1
    88    22    20   ar
    89    19    18   ar
    90    40    38   ar
    91    27    15   am
    92    26    25   ar
    93    94    93    1
    94    94    95   ar
    95    29    30    2
    96    29    33   am
    97    97    95   ar
    98    11    10    1
    99    93    90    1
   100    90    89    1
   101    33    34    1
   102    20    18   ar
   103    20    23   ar
   104    18    17    1
   105    38    39   ar
   106    38    37    1
   107     9    10    1
   108     9     6    1
   109    15    14    1
   110    15    16    2
   111    25    23   ar
   112    34    37    1
   113    34    35    1
   114    14    17    1
   115    14    13    1
   116     5     6    1
   117     5     3   am
   118     8     7    2
   119     6     7    1
   120    35    36    2
   121     2     3    1
   122     2     1    1
   123     3     4    2
