@<TRIPOS>MOLECULE
tmp/2ocpH00.pdb
 225 213 0 0 0
SMALL
GASTEIGER

@<TRIPOS>ATOM
      1  N         28.9760  -24.0800   66.5950 N.3    10  ASN10      -0.1225
      2  CA        29.2240  -23.4300   67.8700 C.3    10  ASN10       0.1785
      3  C         30.7140  -23.2790   68.1330 C.2    10  ASN10       0.2597
      4  O         31.5510  -23.8300   67.4110 O.2    10  ASN10      -0.2718
      5  CB        28.6090  -24.2350   68.9990 C.3    10  ASN10       0.1169
      6  CG        28.2490  -23.3780   70.1850 C.2    10  ASN10       0.2627
      7  OD1       28.9580  -22.4220   70.5220 O.2    10  ASN10      -0.2716
      8  ND2       27.1410  -23.7170   70.8370 N.am   10  ASN10      -0.0877
      9  N         31.0410  -22.5250   69.1720 N.am   11  ILE11      -0.1966
     10  CA        32.4270  -22.3230   69.5340 C.3    11  ILE11       0.1727
     11  C         33.0370  -23.6800   69.8420 C.2    11  ILE11       0.2616
     12  O         32.3980  -24.5170   70.4730 O.2    11  ILE11      -0.2715
     13  CB        32.5550  -21.4480   70.7840 C.3    11  ILE11       0.0290
     14  CG1       32.0450  -20.0440   70.4840 C.3    11  ILE11       0.0022
     15  CG2       34.0110  -21.4050   71.2470 C.3    11  ILE11       0.0023
     16  CD1       31.8900  -19.1820   71.7140 C.3    11  ILE11       0.0001
     17  N         34.2650  -23.8980   69.3800 N.am   12  ALA12      -0.1977
     18  CA        34.9880  -25.1400   69.6270 C.3    12  ALA12       0.1597
     19  C         34.3820  -26.4480   69.1050 C.2    12  ALA12       0.2287
     20  O         34.9750  -27.5060   69.3050 O.2    12  ALA12      -0.2864
     21  CB        35.2470  -25.2730   71.1120 C.3    12  ALA12       0.0319
     22  N         34.6520  -27.7370   66.6130 N.3    14  GLY14      -0.1210
     23  CA        35.6930  -28.3890   65.8330 C.3    14  GLY14       0.1956
     24  C         35.7870  -27.9240   64.3840 C.2    14  GLY14       0.2612
     25  O         36.1510  -28.6990   63.4940 O.2    14  GLY14      -0.2717
     26  N         35.4720  -26.6580   64.1350 N.am   15  LYS15      -0.1965
     27  CA        35.5150  -26.1240   62.7790 C.3    15  LYS15       0.1728
     28  C         36.8900  -26.2580   62.1340 C.2    15  LYS15       0.2616
     29  O         37.0260  -26.8630   61.0750 O.2    15  LYS15      -0.2715
     30  CB        35.0840  -24.6570   62.7890 C.3    15  LYS15       0.0311
     31  CG        35.2210  -23.9410   61.4540 C.3    15  LYS15       0.0038
     32  CD        34.4130  -22.6510   61.4430 C.3    15  LYS15       0.0206
     33  CE        34.8360  -21.6850   62.5430 C.3    15  LYS15       0.1093
     34  NZ        36.1540  -21.0640   62.2550 N.3    15  LYS15      -0.1314
     35  N         37.9090  -25.6950   62.7740 N.am   16  SER16      -0.1950
     36  CA        39.2710  -25.7520   62.2480 C.3    16  SER16       0.1924
     37  C         39.7280  -27.1610   61.9450 C.2    16  SER16       0.2314
     38  O         40.4900  -27.3840   61.0090 O.2    16  SER16      -0.2863
     39  CB        40.2500  -25.0960   63.2190 C.3    16  SER16       0.2116
     40  OG        40.0610  -23.6850   63.2260 O.3    16  SER16      -0.2180
     41  N         39.3120  -17.7660   58.3400 N.3    34  GLU34      -0.1245
     42  CA        38.5580  -16.9590   59.3190 C.3    34  GLU34       0.1567
     43  C         39.4940  -16.2300   60.2940 C.2    34  GLU34       0.2260
     44  O         40.1420  -16.8620   61.1340 O.2    34  GLU34      -0.2867
     45  CB        37.5840  -17.8220   60.1310 C.3    34  GLU34       0.0388
     46  CG        36.6960  -17.0160   61.1080 C.3    34  GLU34       0.1160
     47  CD        35.6050  -16.1760   60.4120 C.2    34  GLU34       0.3649
     48  OE1       35.9360  -15.2820   59.5960 O.co2  34  GLU34      -0.2457
     49  OE2       34.4060  -16.4110   60.6880 O.co2  34  GLU34      -0.2457
     50  N         40.5030  -15.0620   63.0700 N.3    36  VAL36      -0.1245
     51  CA        40.7420  -15.1660   64.5190 C.3    36  VAL36       0.1561
     52  C         42.0730  -14.6150   65.0430 C.2    36  VAL36       0.2260
     53  O         42.1330  -14.1120   66.1670 O.2    36  VAL36      -0.2867
     54  CB        40.6320  -16.6310   65.0210 C.3    36  VAL36       0.0252
     55  CG1       40.5370  -16.6560   66.5540 C.3    36  VAL36       0.0019
     56  CG2       39.4310  -17.3120   64.3860 C.3    36  VAL36       0.0019
     57  N         42.0410  -10.8140   65.3130 N.3    39  TRP39      -0.1241
     58  CA        41.1540  -10.2690   66.3570 C.3    39  TRP39       0.1605
     59  C         41.8470  -10.2150   67.7240 C.2    39  TRP39       0.2264
     60  O         41.5200   -9.3810   68.5740 O.2    39  TRP39      -0.2867
     61  CB        39.8700  -11.1110   66.4980 C.3    39  TRP39       0.0550
     62  CG        39.0130  -11.1860   65.2580 C.ar   39  TRP39       0.0003
     63  CD1       38.8640  -10.2200   64.3000 C.ar   39  TRP39       0.0946
     64  CD2       38.1700  -12.2790   64.8580 C.ar   39  TRP39       0.0152
     65  NE1       37.9860  -10.6440   63.3300 N.ar   39  TRP39      -0.2442
     66  CE2       37.5440  -11.9040   63.6460 C.ar   39  TRP39       0.0810
     67  CE3       37.8820  -13.5360   65.4080 C.ar   39  TRP39       0.0012
     68  CZ2       36.6490  -12.7420   62.9720 C.ar   39  TRP39       0.0191
     69  CZ3       36.9910  -14.3690   64.7370 C.ar   39  TRP39       0.0001
     70  CH2       36.3870  -13.9660   63.5310 C.ar   39  TRP39       0.0015
     71  N         39.1930   -9.4370   70.6910 N.3    48  LEU48      -0.1245
     72  CA        38.5310  -10.6530   71.1370 C.3    48  LEU48       0.1561
     73  C         38.4830  -10.7080   72.6630 C.2    48  LEU48       0.2260
     74  O         37.4340  -10.9470   73.2610 O.2    48  LEU48      -0.2867
     75  CB        39.2730  -11.8760   70.5930 C.3    48  LEU48       0.0270
     76  CG        38.7410  -13.2590   70.9620 C.3    48  LEU48       0.0019
     77  CD1       37.2720  -13.3640   70.6060 C.3    48  LEU48       0.0001
     78  CD2       39.5480  -14.3070   70.2270 C.3    48  LEU48       0.0001
     79  N         36.1110   -8.0430   74.0730 N.3    51  MET51      -0.1230
     80  CA        34.7000   -8.3610   73.9330 C.3    51  MET51       0.1702
     81  C         34.2790   -9.3300   75.0220 C.2    51  MET51       0.2592
     82  O         33.1750   -9.2250   75.5520 O.2    51  MET51      -0.2718
     83  CB        34.3950   -8.9690   72.5610 C.3    51  MET51       0.0401
     84  CG        34.5900  -10.4690   72.5010 C.3    51  MET51       0.0596
     85  SD        33.0680  -11.3630   72.1990 S.3    51  MET51      -0.1393
     86  CE        31.9340  -10.6010   73.4230 C.3    51  MET51       0.0692
     87  N         35.1580  -10.2660   75.3680 N.am   52  TYR52      -0.1976
     88  CA        34.8270  -11.2510   76.3930 C.3    52  TYR52       0.1639
     89  C         34.8840  -10.7130   77.8050 C.2    52  TYR52       0.2290
     90  O         34.0570  -11.0740   78.6360 O.2    52  TYR52      -0.2864
     91  CB        35.7390  -12.4700   76.2900 C.3    52  TYR52       0.0560
     92  CG        35.3130  -13.4770   75.2410 C.ar   52  TYR52      -0.0198
     93  CD1       36.2340  -13.9780   74.3220 C.ar   52  TYR52      -0.0009
     94  CD2       33.9910  -13.9450   75.1810 C.ar   52  TYR52      -0.0009
     95  CE1       35.8580  -14.9100   73.3760 C.ar   52  TYR52       0.0417
     96  CE2       33.6040  -14.8830   74.2370 C.ar   52  TYR52       0.0417
     97  CZ        34.5480  -15.3560   73.3450 C.ar   52  TYR52       0.1957
     98  OH        34.2090  -16.2890   72.4190 O.3    52  TYR52      -0.2866
     99  N         33.1620   -5.0380   68.4550 N.3    62  PHE62      -0.1227
    100  CA        33.6480   -6.3000   67.9230 C.3    62  PHE62       0.1736
    101  C         32.8500   -6.7220   66.6980 C.2    62  PHE62       0.2595
    102  O         33.4150   -7.0570   65.6550 O.2    62  PHE62      -0.2718
    103  CB        33.5490   -7.4010   68.9690 C.3    62  PHE62       0.0547
    104  CG        34.2200   -8.6720   68.5510 C.ar   62  PHE62      -0.0202
    105  CD1       35.5810   -8.8560   68.7630 C.ar   62  PHE62      -0.0042
    106  CD2       33.5080   -9.6630   67.8870 C.ar   62  PHE62      -0.0042
    107  CE1       36.2260  -10.0110   68.3170 C.ar   62  PHE62      -0.0003
    108  CE2       34.1480  -10.8190   67.4380 C.ar   62  PHE62      -0.0003
    109  CZ        35.5080  -10.9920   67.6520 C.ar   62  PHE62      -0.0000
    110  N         31.5290   -6.7100   66.8340 N.am   63  GLN63      -0.1979
    111  CA        30.6420   -7.1070   65.7500 C.3    63  GLN63       0.1601
    112  C         30.8970   -6.3150   64.4790 C.2    63  GLN63       0.2287
    113  O         30.8530   -6.8710   63.3860 O.2    63  GLN63      -0.2864
    114  CB        29.1930   -6.9330   66.1900 C.3    63  GLN63       0.0394
    115  CG        28.3630   -8.1920   66.1300 C.3    63  GLN63       0.0908
    116  CD        29.1370   -9.4330   66.5500 C.2    63  GLN63       0.2608
    117  OE1       29.3940  -10.3120   65.7240 O.2    63  GLN63      -0.2717
    118  NE2       29.5160   -9.5120   67.8240 N.am   63  GLN63      -0.0878
    119  N         34.0950   -7.7340   62.9310 N.3    66  SER66      -0.1217
    120  CA        33.9560   -9.0690   62.3790 C.3    66  SER66       0.1889
    121  C         33.0560   -9.0450   61.1560 C.2    66  SER66       0.2288
    122  O         33.3030   -9.7680   60.1870 O.2    66  SER66      -0.2866
    123  CB        33.3780  -10.0280   63.4170 C.3    66  SER66       0.2089
    124  OG        32.0380   -9.6990   63.7180 O.3    66  SER66      -0.2183
    125  N         34.1480  -10.3860   57.5220 N.3    70  ARG70      -0.1245
    126  CA        33.4250  -11.4220   56.7980 C.3    70  ARG70       0.1563
    127  C         32.8850  -10.9230   55.4660 C.2    70  ARG70       0.2260
    128  O         32.8420  -11.6770   54.4990 O.2    70  ARG70      -0.2867
    129  CB        32.2840  -11.9700   57.6540 C.3    70  ARG70       0.0307
    130  CG        32.7830  -12.9430   58.6960 C.3    70  ARG70       0.0489
    131  CD        31.8640  -13.1030   59.8760 C.3    70  ARG70       0.2205
    132  NE        32.4160  -14.1110   60.7660 N.pl3  70  ARG70      -0.0865
    133  CZ        32.2070  -14.1490   62.0760 C.cat  70  ARG70       0.5346
    134  NH1       31.4510  -13.2270   62.6530 N.pl3  70  ARG70       0.1354
    135  NH2       32.7580  -15.1060   62.8110 N.pl3  70  ARG70       0.1354
    136  N         34.6470  -19.9310   56.4070 N.3    93  GLU93      -0.1231
    137  CA        34.5120  -20.2920   57.8140 C.3    93  GLU93       0.1699
    138  C         33.5570  -19.2560   58.3790 C.2    93  GLU93       0.2592
    139  O         33.9220  -18.0980   58.5710 O.2    93  GLU93      -0.2718
    140  CB        35.8600  -20.2400   58.5280 C.3    93  GLU93       0.0402
    141  CG        36.7720  -21.3910   58.1460 C.3    93  GLU93       0.1161
    142  CD        38.0930  -21.3790   58.8960 C.2    93  GLU93       0.3649
    143  OE1       38.0720  -21.4640   60.1470 O.co2  93  GLU93      -0.2457
    144  OE2       39.1510  -21.2850   58.2270 O.co2  93  GLU93      -0.2457
    145  N         32.3240  -19.6870   58.6260 N.am   94  ARG94      -0.1980
    146  CA        31.2540  -18.8210   59.1060 C.3    94  ARG94       0.1597
    147  C         30.9830  -17.7660   58.0510 C.2    94  ARG94       0.2287
    148  O         31.7570  -17.5960   57.1060 O.2    94  ARG94      -0.2864
    149  CB        31.5790  -18.2010   60.4640 C.3    94  ARG94       0.0334
    150  CG        31.2960  -19.1800   61.6090 C.3    94  ARG94       0.0492
    151  CD        31.0510  -18.4750   62.9180 C.3    94  ARG94       0.2205
    152  NE        32.0860  -18.7440   63.9090 N.pl3  94  ARG94      -0.0865
    153  CZ        32.0020  -19.6930   64.8280 C.cat  94  ARG94       0.5346
    154  NH1       30.9350  -20.4670   64.8760 N.pl3  94  ARG94       0.1354
    155  NH2       32.9700  -19.8500   65.7150 N.pl3  94  ARG94       0.1354
    156  N         27.2090  -13.7840   61.3730 N.3    99  ASP99      -0.1239
    157  CA        27.6740  -12.6350   62.1510 C.3    99  ASP99       0.1674
    158  C         26.4510  -12.0080   62.7960 C.2    99  ASP99       0.2266
    159  O         26.4760  -11.6100   63.9530 O.2    99  ASP99      -0.2867
    160  CB        28.3370  -11.5840   61.2580 C.3    99  ASP99       0.1410
    161  CG        29.0990  -10.5420   62.0550 C.2    99  ASP99       0.3668
    162  OD1       30.3160  -10.7280   62.2470 O.co2  99  ASP99      -0.2456
    163  OD2       28.4930   -9.5480   62.5090 O.co2  99  ASP99      -0.2456
    164  N         25.8930  -14.5510   66.4130 N.3   103  PHE103     -0.1241
    165  CA        26.4400  -13.7190   67.4670 C.3   103  PHE103      0.1605
    166  C         25.7620  -12.3940   67.7840 C.2   103  PHE103      0.2264
    167  O         25.3170  -12.1980   68.9160 O.2   103  PHE103     -0.2867
    168  CB        27.9240  -13.4960   67.2260 C.3   103  PHE103      0.0534
    169  CG        28.7000  -14.7610   67.1450 C.ar  103  PHE103     -0.0203
    170  CD1       28.7790  -15.4600   65.9530 C.ar  103  PHE103     -0.0042
    171  CD2       29.3510  -15.2610   68.2580 C.ar  103  PHE103     -0.0042
    172  CE1       29.5010  -16.6400   65.8690 C.ar  103  PHE103     -0.0003
    173  CE2       30.0750  -16.4430   68.1860 C.ar  103  PHE103     -0.0003
    174  CZ        30.1500  -17.1330   66.9880 C.ar  103  PHE103     -0.0000
    175  N         24.1070  -11.6690   71.2030 N.3   107  LEU107     -0.1245
    176  CA        24.6810  -10.6370   72.0590 C.3   107  LEU107      0.1561
    177  C         23.6290   -9.6230   72.4760 C.2   107  LEU107      0.2260
    178  O         23.7190   -9.0320   73.5480 O.2   107  LEU107     -0.2867
    179  CB        25.8440   -9.9400   71.3540 C.3   107  LEU107      0.0270
    180  CG        27.1440  -10.7410   71.4300 C.3   107  LEU107      0.0019
    181  CD1       28.2300  -10.0710   70.6210 C.3   107  LEU107      0.0001
    182  CD2       27.5700  -10.8540   72.8720 C.3   107  LEU107      0.0001
    183  N         41.0160  -27.1660   74.7030 N.3   158  ARG158     -0.1245
    184  CA        42.0340  -26.3030   74.0990 C.3   158  ARG158      0.1563
    185  C         42.1320  -25.0830   75.0130 C.2   158  ARG158      0.2260
    186  O         41.1120  -24.5350   75.4260 O.2   158  ARG158     -0.2867
    187  CB        41.6390  -25.8640   72.6820 C.3   158  ARG158      0.0307
    188  CG        40.7560  -24.6240   72.6160 C.3   158  ARG158      0.0489
    189  CD        40.3740  -24.2370   71.1850 C.3   158  ARG158      0.2205
    190  NE        39.3180  -23.2260   71.1910 N.pl3 158  ARG158     -0.0865
    191  CZ        38.4730  -23.0110   70.1890 C.cat 158  ARG158      0.5346
    192  NH1       38.5470  -23.7310   69.0810 N.pl3 158  ARG158      0.1354
    193  NH2       37.5350  -22.0850   70.3010 N.pl3 158  ARG158      0.1354
    194  N         43.3960  -21.4910   74.9270 N.3   160  ARG160     -0.1245
    195  CA        42.7840  -20.2870   74.3800 C.3   160  ARG160      0.1563
    196  C         42.4040  -19.3500   75.5220 C.2   160  ARG160      0.2260
    197  O         41.3040  -19.4260   76.0740 O.2   160  ARG160     -0.2867
    198  CB        41.5490  -20.6380   73.5490 C.3   160  ARG160      0.0307
    199  CG        41.1250  -19.5180   72.6070 C.3   160  ARG160      0.0489
    200  CD        41.6920  -19.7040   71.2120 C.3   160  ARG160      0.2205
    201  NE        40.6160  -19.8010   70.2290 N.pl3 160  ARG160     -0.0865
    202  CZ        40.6890  -20.4980   69.1000 C.cat 160  ARG160      0.5346
    203  NH1       41.7940  -21.1690   68.7930 N.pl3 160  ARG160      0.1354
    204  NH2       39.6430  -20.5480   68.2890 N.pl3 160  ARG160      0.1354
    205  N         39.0810  -17.2230   75.7390 N.3   163  GLU163     -0.1245
    206  CA        37.9330  -18.0490   76.0550 C.3   163  GLU163      0.1567
    207  C         37.7910  -18.5860   77.4680 C.2   163  GLU163      0.2260
    208  O         36.6710  -18.7380   77.9620 O.2   163  GLU163     -0.2867
    209  CB        37.8800  -19.2070   75.0690 C.3   163  GLU163      0.0388
    210  CG        37.4720  -18.7740   73.6870 C.3   163  GLU163      0.1160
    211  CD        37.6990  -19.8480   72.6540 C.2   163  GLU163      0.3649
    212  OE1       37.7140  -21.0480   73.0280 O.co2 163  GLU163     -0.2457
    213  OE2       37.8560  -19.4940   71.4640 O.co2 163  GLU163     -0.2457
    214  N         26.6230  -19.7550   77.9640 N.3   170  TYR170     -0.1241
    215  CA        26.9230  -19.0100   76.7400 C.3   170  TYR170      0.1605
    216  C         26.8780  -19.9300   75.5290 C.2   170  TYR170      0.2264
    217  O         26.2790  -19.5980   74.5060 O.2   170  TYR170     -0.2867
    218  CB        28.3030  -18.3650   76.8340 C.3   170  TYR170      0.0534
    219  CG        28.6000  -17.3700   75.7330 C.ar  170  TYR170     -0.0201
    220  CD1       27.8020  -16.2390   75.5550 C.ar  170  TYR170     -0.0009
    221  CD2       29.6930  -17.5470   74.8760 C.ar  170  TYR170     -0.0009
    222  CE1       28.0820  -15.3130   74.5570 C.ar  170  TYR170      0.0417
    223  CE2       29.9820  -16.6270   73.8750 C.ar  170  TYR170      0.0417
    224  CZ        29.1720  -15.5170   73.7210 C.ar  170  TYR170      0.1957
    225  OH        29.4340  -14.6170   72.7210 O.3   170  TYR170     -0.2866
@<TRIPOS>BOND
     1   128   127    2
     2   127   126    1
     3   136   137    1
     4   126   125    1
     5   126   129    1
     6   148   147    2
     7   129   130    1
     8   137   138    1
     9   137   140    1
    10   147   146    1
    11   141   140    1
    12   141   142    1
    13   144   142   ar
    14    41    42    1
    15   138   139    2
    16   138   145   am
    17   145   146    1
    18   130   131    1
    19   142   143   ar
    20   146   149    1
    21    42    45    1
    22    42    43    1
    23    48    47   ar
    24   131   132    1
    25    45    46    1
    26   122   121    2
    27    43    44    2
    28    47    49   ar
    29    47    46    1
    30   149   150    1
    31   132   133    2
    32    38    37    2
    33    29    28    2
    34   121   120    1
    35   160   161    1
    36   160   157    1
    37   156   157    1
    38    32    31    1
    39    32    33    1
    40    31    30    1
    41   150   151    1
    42    37    36    1
    43   161   162   ar
    44   161   163   ar
    45   133   134    1
    46   133   135    1
    47    28    35   am
    48    28    27    1
    49   157   158    1
    50    36    35    1
    51    36    39    1
    52    34    33    1
    53   120   119    1
    54   120   123    1
    55    27    30    1
    56    27    26    1
    57   158   159    2
    58   151   152    1
    59    68    70   ar
    60    68    66   ar
    61    50    51    1
    62    39    40    1
    63    65    66   ar
    64    65    63   ar
    65   113   112    2
    66   123   124    1
    67    25    24    2
    68    70    69   ar
    69    66    64   ar
    70   152   153    2
    71    26    24   am
    72    63    62   ar
    73    24    23    1
    74    56    54    1
    75   112   111    1
    76    51    54    1
    77    51    52    1
    78    69    67   ar
    79   153   154    1
    80   153   155    1
    81    64    62   ar
    82    64    67   ar
    83    54    55    1
    84    52    53    2
    85    62    61    1
    86    57    58    1
    87   102   101    2
    88   117   116    2
    89   111   114    1
    90   111   110    1
    91    23    22    1
    92   172   170   ar
    93   172   174   ar
    94   170   169   ar
    95   115   114    1
    96   115   116    1
    97    58    61    1
    98    58    59    1
    99   164   165    1
   100   116   118   am
   101     1     2    1
   102   101   110   am
   103   101   100    1
   104   174   173   ar
   105   169   168    1
   106   169   171   ar
   107   168   165    1
   108     4     3    2
   109   108   109   ar
   110   108   106   ar
   111   165   166    1
   112   109   107   ar
   113    59    60    2
   114   166   167    2
   115     2     3    1
   116     2     5    1
   117   106   104   ar
   118   100    99    1
   119   100   103    1
   120     3     9   am
   121   173   171   ar
   122   204   202    1
   123   107   105   ar
   124   104   105   ar
   125   104   103    1
   126   203   202    1
   127     5     6    1
   128   192   191    1
   129   202   201    2
   130    19    20    2
   131    19    18    1
   132     9    10    1
   133    17    18    1
   134    17    11   am
   135    10    11    1
   136    10    13    1
   137    18    21    1
   138    11    12    2
   139     6     7    2
   140     6     8   am
   141   191   193    1
   142   191   190    2
   143    78    76    1
   144   201   200    1
   145    14    13    1
   146    14    16    1
   147    75    76    1
   148    75    72    1
   149    77    76    1
   150   181   180    1
   151    71    72    1
   152    13    15    1
   153    72    73    1
   154   189   190    1
   155   189   188    1
   156   175   176    1
   157   200   199    1
   158   179   180    1
   159   179   176    1
   160   180   182    1
   161   213   211   ar
   162   176   177    1
   163    85    84    1
   164    85    86    1
   165    98    97    1
   166   177   178    2
   167    84    83    1
   168    83    80    1
   169   199   198    1
   170   188   187    1
   171   211   212   ar
   172   211   210    1
   173    73    74    2
   174   187   184    1
   175   225   224    1
   176    97    95   ar
   177    97    96   ar
   178    95    93   ar
   179   198   195    1
   180   210   209    1
   181   224   223   ar
   182   224   222   ar
   183   223   221   ar
   184    80    79    1
   185    80    81    1
   186   184   183    1
   187   184   185    1
   188    96    94   ar
   189    93    92   ar
   190   195   194    1
   191   195   196    1
   192   217   216    2
   193   222   220   ar
   194   221   219   ar
   195   185   186    2
   196    81    87   am
   197    81    82    2
   198   209   206    1
   199    94    92   ar
   200    92    91    1
   201    87    88    1
   202   196   197    2
   203   216   215    1
   204   220   219   ar
   205   219   218    1
   206   205   206    1
   207   206   207    1
   208    91    88    1
   209    88    89    1
   210   215   218    1
   211   215   214    1
   212   207   208    2
   213    89    90    2
