@<TRIPOS>MOLECULE
tmp/2od2A00.pdb
 205 205 0 0 0
SMALL
GASTEIGER

@<TRIPOS>ATOM
      1  N         11.3350   85.0770   16.3380 N.3    47  PHE47      -0.1241
      2  CA        11.1590   84.9190   17.8140 C.3    47  PHE47       0.1605
      3  C         12.2410   85.7800   18.6180 C.2    47  PHE47       0.2264
      4  O         12.0400   86.1720   19.7270 O.2    47  PHE47      -0.2867
      5  CB        11.2390   83.3700   18.1980 C.3    47  PHE47       0.0534
      6  CG        12.5850   82.7660   18.1830 C.ar   47  PHE47      -0.0203
      7  CD1       13.2570   82.4360   19.3720 C.ar   47  PHE47      -0.0042
      8  CD2       13.2540   82.4500   16.9860 C.ar   47  PHE47      -0.0042
      9  CE1       14.5090   81.8160   19.3380 C.ar   47  PHE47      -0.0003
     10  CE2       14.5100   81.8490   16.9520 C.ar   47  PHE47      -0.0003
     11  CZ        15.1970   81.5780   18.1140 C.ar   47  PHE47      -0.0000
     12  N         16.4020   81.9230   22.7440 N.3    67  GLU67      -0.1196
     13  CA        16.7750   80.5670   22.4590 C.3    67  GLU67       0.1783
     14  C         16.4450   79.4740   23.6270 C.2    67  GLU67       0.2306
     15  O         16.5830   78.3050   23.4210 O.2    67  GLU67      -0.2863
     16  CB        18.2100   80.5640   22.0210 C.2    67  GLU67       0.0071
     17  CG        18.4950   81.2590   20.6440 C.2    67  GLU67       0.0834
     18  CD        19.9360   81.1990   20.1380 C.2    67  GLU67       0.3877
     19  OE1       20.2250   81.4990   18.8950 O.co2  67  GLU67      -0.2406
     20  OE2       20.8180   80.8210   21.0010 O.co2  67  GLU67      -0.2406
     21  N         14.1280   76.6060   22.5530 N.3    70  PHE70      -0.1241
     22  CA        14.7680   75.4510   21.9670 C.3    70  PHE70       0.1605
     23  C         15.8100   74.7870   22.8850 C.2    70  PHE70       0.2264
     24  O         16.8890   74.3860   22.4660 O.2    70  PHE70      -0.2867
     25  CB        15.3920   75.7690   20.5970 C.3    70  PHE70       0.0534
     26  CG        14.3790   76.3820   19.6220 C.ar   70  PHE70      -0.0203
     27  CD1       14.6240   77.6140   19.0590 C.ar   70  PHE70      -0.0042
     28  CD2       13.2720   75.6730   19.2710 C.ar   70  PHE70      -0.0042
     29  CE1       13.7280   78.1410   18.1170 C.ar   70  PHE70      -0.0003
     30  CE2       12.3570   76.1470   18.3920 C.ar   70  PHE70      -0.0003
     31  CZ        12.6300   77.4130   17.7590 C.ar   70  PHE70      -0.0000
     32  N         18.6400   74.9660    7.2740 N.3   118  GLN118     -0.1245
     33  CA        18.5530   75.2040    8.6820 C.3   118  GLN118      0.1566
     34  C         17.1300   75.5190    9.1400 C.2   118  GLN118      0.2260
     35  O         16.8540   75.4050   10.3150 O.2   118  GLN118     -0.2867
     36  CB        19.4810   76.3170    9.0970 C.3   118  GLN118      0.0367
     37  CG        20.9400   76.0210    8.7950 C.3   118  GLN118      0.0905
     38  CD        21.8250   77.1640    9.0640 C.2   118  GLN118      0.2608
     39  OE1       22.1410   77.4720   10.2830 O.2   118  GLN118     -0.2717
     40  NE2       22.0860   77.9380    8.0850 N.am  118  GLN118     -0.0878
     41  N         13.0110   75.2230    9.8850 N.3   120  PHE120     -0.1241
     42  CA        11.9720   74.3230   10.3680 C.3   120  PHE120      0.1605
     43  C         10.5910   74.8630   10.0160 C.2   120  PHE120      0.2264
     44  O          9.5410   74.2210   10.3460 O.2   120  PHE120     -0.2867
     45  CB        12.0660   74.1250   11.8860 C.3   120  PHE120      0.0534
     46  CG        11.6810   75.3250   12.7050 C.ar  120  PHE120     -0.0203
     47  CD1       10.3690   75.5030   13.1120 C.ar  120  PHE120     -0.0042
     48  CD2       12.6230   76.2720   13.0690 C.ar  120  PHE120     -0.0042
     49  CE1       10.0020   76.6030   13.8630 C.ar  120  PHE120     -0.0003
     50  CE2       12.2620   77.3760   13.8200 C.ar  120  PHE120     -0.0003
     51  CZ        10.9510   77.5400   14.2160 C.ar  120  PHE120     -0.0000
     52  N         17.8430   70.8050   10.8730 N.3   138  HIS138     -0.1241
     53  CA        17.2410   71.0580   12.2410 C.3   138  HIS138      0.1621
     54  C         15.8540   70.5240   12.4560 C.2   138  HIS138      0.2264
     55  O         15.1790   70.9460   13.3670 O.2   138  HIS138     -0.2867
     56  CB        17.2900   72.5310   12.5480 C.3   138  HIS138      0.0745
     57  CG        18.6920   73.1520   12.5030 C.ar  138  HIS138      0.0817
     58  ND1       18.9150   74.5210   12.3660 N.ar  138  HIS138     -0.2268
     59  CD2       19.9110   72.5750   12.6670 C.ar  138  HIS138      0.1154
     60  CE1       20.2220   74.7500   12.3900 C.ar  138  HIS138      0.1986
     61  NE2       20.8400   73.5890   12.6320 N.ar  138  HIS138     -0.2212
     62  N         11.9850   68.7200   16.1420 N.3   184  ILE184     -0.1231
     63  CA        12.8260   69.8990   15.9530 C.3   184  ILE184      0.1692
     64  C         14.1310   69.7350   16.8320 C.2   184  ILE184      0.2592
     65  O         14.0350   69.3650   17.9510 O.2   184  ILE184     -0.2718
     66  CB        11.9970   71.1520   16.2810 C.3   184  ILE184      0.0266
     67  CG1       10.8800   71.3320   15.2790 C.3   184  ILE184      0.0019
     68  CG2       12.8890   72.4550   16.4430 C.3   184  ILE184      0.0020
     69  CD1        9.7970   72.3240   15.6920 C.3   184  ILE184      0.0001
     70  N         15.2830   69.8540   16.1970 N.am  185  VAL185     -0.1966
     71  CA        16.6160   69.7900   16.8210 C.3   185  VAL185      0.1727
     72  C         16.7080   71.0120   17.7050 C.2   185  VAL185      0.2616
     73  O         16.7130   72.1890   17.3200 O.2   185  VAL185     -0.2715
     74  CB        17.7970   69.6900   15.7780 C.3   185  VAL185      0.0290
     75  CG1       19.1540   69.6400   16.3980 C.3   185  VAL185      0.0023
     76  CG2       17.6210   68.5140   14.8140 C.3   185  VAL185      0.0023
     77  N         16.7290   70.7440   18.9890 N.am  186  PHE186     -0.1960
     78  CA        16.9480   71.8460   19.9370 C.3   186  PHE186      0.1767
     79  C         18.4940   72.1300   20.2220 C.2   186  PHE186      0.2619
     80  O         19.3790   71.3260   20.0000 O.2   186  PHE186     -0.2715
     81  CB        16.2030   71.4950   21.2890 C.3   186  PHE186      0.0528
     82  CG        14.7710   71.6980   21.3680 C.2   186  PHE186     -0.0463
     83  CD1       13.9290   71.7080   20.3150 C.3   186  PHE186      0.0218
     84  CD2       14.1870   71.6410   22.6300 C.2   186  PHE186     -0.0345
     85  CE1       12.7290   71.9920   20.4700 C.3   186  PHE186      0.0047
     86  CE2       12.8690   71.8710   22.8240 C.3   186  PHE186      0.0254
     87  CZ        12.0480   71.9630   21.6880 C.3   186  PHE186      0.0050
     88  N         18.8790   73.2850   20.7710 N.am  187  PHE187     -0.1960
     89  CA        20.3310   73.5730   21.0560 C.3   187  PHE187      0.1771
     90  C         20.7350   72.5050   22.0240 C.2   187  PHE187      0.2620
     91  O         20.0060   72.1570   22.8880 O.2   187  PHE187     -0.2715
     92  CB        20.6320   75.0050   21.6670 C.3   187  PHE187      0.0574
     93  CG        20.4760   76.1230   20.6500 C.ar  187  PHE187     -0.0200
     94  CD1       21.4810   76.3450   19.7480 C.ar  187  PHE187     -0.0042
     95  CD2       19.2510   76.7810   20.5040 C.ar  187  PHE187     -0.0042
     96  CE1       21.3000   77.2310   18.6640 C.ar  187  PHE187     -0.0003
     97  CE2       19.1130   77.7020   19.4750 C.ar  187  PHE187     -0.0003
     98  CZ        20.1620   77.9280   18.5570 C.ar  187  PHE187     -0.0000
     99  N         21.8810   71.9590   21.7950 N.am  188  GLY188     -0.1940
    100  CA        22.4480   70.9460   22.6910 C.3   188  GLY188      0.2014
    101  C         22.1240   69.5100   22.2410 C.2   188  GLY188      0.2639
    102  O         22.6570   68.5960   22.8380 O.2   188  GLY188     -0.2714
    103  N         21.2140   69.2680   21.2930 N.am  189  GLU189     -0.1963
    104  CA        21.0490   67.9000   20.6860 C.3   189  GLU189      0.1733
    105  C         21.7780   67.6510   19.4040 C.2   189  GLU189      0.2616
    106  O         22.1470   68.5600   18.6070 O.2   189  GLU189     -0.2715
    107  CB        19.5830   67.5410   20.3290 C.3   189  GLU189      0.0429
    108  CG        18.5250   67.8350   21.3670 C.3   189  GLU189      0.1163
    109  CD        17.1590   67.2840   20.9740 C.2   189  GLU189      0.3649
    110  OE1       16.4690   68.0690   20.2840 O.co2 189  GLU189     -0.2457
    111  OE2       16.7330   66.1450   21.3650 O.co2 189  GLU189     -0.2457
    112  N         21.9800   66.3930   19.1370 N.am  190  ASP190     -0.1957
    113  CA        22.6260   66.1320   17.8600 C.3   190  ASP190      0.1840
    114  C         21.6330   66.2990   16.7430 C.2   190  ASP190      0.2622
    115  O         20.4380   66.0610   16.8710 O.2   190  ASP190     -0.2715
    116  CB        23.1920   64.7010   17.7790 C.3   190  ASP190      0.1450
    117  CG        24.5080   64.5260   18.6710 C.2   190  ASP190      0.3671
    118  OD1       24.9070   63.4180   18.9030 O.co2 190  ASP190     -0.2456
    119  OD2       25.2050   65.4920   19.1120 O.co2 190  ASP190     -0.2456
    120  N         22.2370   66.5370   15.5550 N.am  191  LEU191     -0.1964
    121  CA        21.3890   66.5590   14.3040 C.3   191  LEU191      0.1713
    122  C         20.8490   65.0960   13.8660 C.2   191  LEU191      0.2458
    123  O         21.5520   64.0820   14.0570 O.2   191  LEU191     -0.2730
    124  CB        22.2510   67.2820   13.2390 C.3   191  LEU191      0.0310
    125  CG        22.1900   68.8040   13.2720 C.3   191  LEU191      0.0022
    126  CD1       22.4450   69.5410   14.6540 C.3   191  LEU191      0.0001
    127  CD2       23.0450   69.4400   12.1080 C.3   191  LEU191      0.0001
    128  N         19.7930   64.9420   13.0330 N.am  192  PRO192     -0.2716
    129  CA        19.4450   63.6160   12.5790 C.3   192  PRO192      0.1536
    130  C         20.7030   63.0170   11.7770 C.2   192  PRO192      0.2598
    131  O         21.5160   63.7030   11.0730 O.2   192  PRO192     -0.2715
    132  CB        18.1900   63.8260   11.6840 C.3   192  PRO192      0.0310
    133  CG        18.1890   65.2000   11.2690 C.3   192  PRO192      0.0237
    134  CD        19.0730   65.9980   12.2820 C.3   192  PRO192      0.0939
    135  N         20.8110   61.6790   11.8850 N.am  193  ASP193     -0.1972
    136  CA        21.8750   60.9230   11.2110 C.3   193  ASP193      0.1709
    137  C         21.9160   61.1530    9.6670 C.2   193  ASP193      0.2293
    138  O         22.9550   61.2330    9.0540 O.2   193  ASP193     -0.2864
    139  CB        21.6290   59.4280   11.4820 C.3   193  ASP193      0.1436
    140  CG        21.9000   59.0040   12.8980 C.2   193  ASP193      0.3671
    141  OD1       21.4460   57.8740   13.2070 O.co2 193  ASP193     -0.2456
    142  OD2       22.4810   59.7030   13.7450 O.co2 193  ASP193     -0.2456
    143  N         21.8490   63.7800    8.1210 N.3   195  PHE195     -0.1227
    144  CA        22.5820   65.0350    7.8730 C.3   195  PHE195      0.1736
    145  C         24.0020   64.6310    7.5020 C.2   195  PHE195      0.2596
    146  O         24.5460   64.9380    6.3410 O.2   195  PHE195     -0.2718
    147  CB        22.5900   66.0430    9.0800 C.3   195  PHE195      0.0547
    148  CG        23.4550   67.3150    8.8540 C.ar  195  PHE195     -0.0202
    149  CD1       23.0740   68.2640    7.9360 C.ar  195  PHE195     -0.0042
    150  CD2       24.6730   67.5240    9.5610 C.ar  195  PHE195     -0.0042
    151  CE1       23.8570   69.3640    7.7070 C.ar  195  PHE195     -0.0003
    152  CE2       25.4600   68.5670    9.3500 C.ar  195  PHE195     -0.0003
    153  CZ        25.0470   69.5410    8.3950 C.ar  195  PHE195     -0.0000
    154  N         24.6650   64.0470    8.4680 N.am  196  SER196     -0.1938
    155  CA        26.1220   63.6380    8.2400 C.3   196  SER196      0.2055
    156  C         26.2910   62.6300    7.1160 C.2   196  SER196      0.2642
    157  O         27.2850   62.7580    6.2060 O.2   196  SER196     -0.2714
    158  CB        26.8020   63.2010    9.5620 C.3   196  SER196      0.2130
    159  OG        27.0720   64.4010   10.2680 O.3   196  SER196     -0.2179
    160  N         25.3220   61.6910    7.0610 N.am  197  GLU197     -0.1976
    161  CA        25.4000   60.5350    6.1400 C.3   197  GLU197      0.1602
    162  C         25.2820   61.0670    4.6570 C.2   197  GLU197      0.2287
    163  O         26.0630   60.6210    3.7390 O.2   197  GLU197     -0.2864
    164  CB        24.3470   59.4950    6.3630 C.3   197  GLU197      0.0415
    165  CG        24.5230   58.5260    7.6030 C.3   197  GLU197      0.1163
    166  CD        23.2000   57.7660    7.9800 C.2   197  GLU197      0.3649
    167  OE1       23.1850   56.9520    8.9400 O.co2 197  GLU197     -0.2457
    168  OE2       22.1560   58.0380    7.3350 O.co2 197  GLU197     -0.2457
    169  N         26.4190   80.7880   11.6340 N.3   225  ALA225     -0.1231
    170  CA        26.8410   80.9030   13.0380 C.3   225  ALA225      0.1694
    171  C         26.4420   79.8220   13.9100 C.2   225  ALA225      0.2592
    172  O         26.7220   79.9280   15.1180 O.2   225  ALA225     -0.2718
    173  CB        26.3560   82.1880   13.7160 C.3   225  ALA225      0.0304
    174  N         25.6320   78.8990   13.4180 N.am  226  VAL226     -0.1966
    175  CA        25.1610   77.7940   14.1080 C.3   226  VAL226      0.1727
    176  C         25.8250   76.5580   13.5500 C.2   226  VAL226      0.2616
    177  O         25.7710   76.2180   12.2930 O.2   226  VAL226     -0.2715
    178  CB        23.5520   77.6860   14.1170 C.3   226  VAL226      0.0290
    179  CG1       23.1660   76.4330   14.7160 C.3   226  VAL226      0.0023
    180  CG2       22.9750   78.8490   14.8190 C.3   226  VAL226      0.0023
    181  N         26.4250   75.8480   14.4950 N.am  227  TYR227     -0.1960
    182  CA        27.2010   74.6310   14.2100 C.3   227  TYR227      0.1756
    183  C         26.3360   73.4140   14.6530 C.2   227  TYR227      0.2461
    184  O         25.5770   73.5300   15.6870 O.2   227  TYR227     -0.2730
    185  CB        28.6150   74.6660   14.8890 C.3   227  TYR227      0.0574
    186  CG        29.5210   75.6590   14.2790 C.ar  227  TYR227     -0.0198
    187  CD1       29.5940   76.9980   14.7390 C.ar  227  TYR227     -0.0009
    188  CD2       30.3210   75.3040   13.2130 C.ar  227  TYR227     -0.0009
    189  CE1       30.4920   77.9520   14.0800 C.ar  227  TYR227      0.0417
    190  CE2       31.1820   76.2470   12.5480 C.ar  227  TYR227      0.0417
    191  CZ        31.2720   77.5230   12.9770 C.ar  227  TYR227      0.1957
    192  OH        32.1140   78.3200   12.2140 O.3   227  TYR227     -0.2866
    193  N         26.5160   72.2370   14.0080 N.am  228  PRO228     -0.2727
    194  CA        27.5080   71.9540   12.9240 C.3   228  PRO228      0.1402
    195  C         27.2050   72.2960   11.4980 C.2   228  PRO228      0.2269
    196  O         28.0420   72.0950   10.5950 O.2   228  PRO228     -0.2865
    197  CB        27.6800   70.4240   13.0020 C.3   228  PRO228      0.0296
    198  CG        26.4530   69.8770   13.5740 C.3   228  PRO228      0.0237
    199  CD        25.9640   70.9900   14.5740 C.3   228  PRO228      0.0939
    200  N         29.8230   74.3550    9.5310 N.3   231  SER231     -0.1217
    201  CA        31.1300   73.7920    9.1250 C.3   231  SER231      0.1889
    202  C         31.0100   73.3800    7.6770 C.2   231  SER231      0.2288
    203  O         32.0040   73.0620    7.0050 O.2   231  SER231     -0.2866
    204  CB        31.5730   72.5830    9.9520 C.3   231  SER231      0.2089
    205  OG        31.5110   72.6890   11.4150 O.3   231  SER231     -0.2183
@<TRIPOS>BOND
     1   163   162    2
     2   162   161    1
     3   161   164    1
     4   161   160    1
     5   157   156    2
     6   146   145    2
     7   164   165    1
     8   203   202    2
     9   160   156   am
    10   156   155    1
    11    32    33    1
    12   168   166   ar
    13   145   144    1
    14   145   154   am
    15   165   166    1
    16   202   201    1
    17   151   149   ar
    18   151   153   ar
    19   144   143    1
    20   144   147    1
    21   149   148   ar
    22   166   167   ar
    23    40    38   am
    24   155   154    1
    25   155   158    1
    26   153   152   ar
    27    33    36    1
    28    33    34    1
    29    37    38    1
    30    37    36    1
    31   148   147    1
    32   148   150   ar
    33   138   137    2
    34    38    39    2
    35   201   200    1
    36   201   204    1
    37    34    35    2
    38   152   150   ar
    39   158   159    1
    40   137   136    1
    41    41    42    1
    42   204   205    1
    43    43    44    2
    44    43    42    1
    45    42    45    1
    46   196   195    2
    47    52    53    1
    48   131   130    2
    49   136   139    1
    50   136   135    1
    51   133   132    1
    52   133   134    1
    53   139   140    1
    54   195   194    1
    55   169   170    1
    56   132   129    1
    57   130   135   am
    58   130   129    1
    59    45    46    1
    60   127   125    1
    61   192   191    1
    62    53    54    1
    63    53    56    1
    64   134   128    1
    65   177   176    2
    66    58    60   ar
    67    58    57   ar
    68    60    61   ar
    69    54    55    2
    70    57    56    1
    71    57    59   ar
    72   190   191   ar
    73   190   188   ar
    74   129   128    1
    75    61    59   ar
    76    46    48   ar
    77    46    47   ar
    78   140   141   ar
    79   140   142   ar
    80   194   197    1
    81   194   193    1
    82   191   189   ar
    83   197   198    1
    84   128   122   am
    85   170   173    1
    86   170   171    1
    87    48    50   ar
    88    47    49   ar
    89   188   186   ar
    90   124   125    1
    91   124   121    1
    92   125   126    1
    93   174   171   am
    94   174   175    1
    95   176   175    1
    96   176   181   am
    97   198   199    1
    98    50    51   ar
    99    49    51   ar
   100   122   123    2
   101   122   121    1
   102   171   172    2
   103   193   199    1
   104   193   183   am
   105   189   187   ar
   106   175   178    1
   107   178   179    1
   108   178   180    1
   109   182   181    1
   110   182   183    1
   111   182   185    1
   112   186   187   ar
   113   186   185    1
   114   121   120    1
   115   183   184    2
   116    76    74    1
   117    67    69    1
   118    67    66    1
   119   120   114   am
   120    74    75    1
   121    74    71    1
   122    63    62    1
   123    63    66    1
   124    63    64    1
   125    70    71    1
   126    70    64   am
   127    66    68    1
   128     1     2    1
   129   114   115    2
   130   114   113    1
   131    71    72    1
   132    64    65    2
   133    10     8   ar
   134    10    11   ar
   135     8     6   ar
   136    73    72    2
   137    72    77   am
   138    31    29   ar
   139    31    30   ar
   140   116   113    1
   141   116   117    1
   142     2     5    1
   143     2     3    1
   144   113   112    1
   145    11     9   ar
   146    29    27   ar
   147     6     5    1
   148     6     7   ar
   149    30    28   ar
   150    98    96   ar
   151    98    97   ar
   152   106   105    2
   153     3     4    2
   154    96    94   ar
   155   117   118   ar
   156   117   119   ar
   157    19    18   ar
   158    77    78    1
   159    27    26   ar
   160   112   105   am
   161    28    26   ar
   162     9     7   ar
   163   105   104    1
   164    97    95   ar
   165    26    25    1
   166    94    93   ar
   167    78    79    1
   168    78    81    1
   169    80    79    2
   170    18    17    1
   171    18    20   ar
   172    79    88   am
   173   110   109   ar
   174    83    85    1
   175    83    82    1
   176   107   104    1
   177   107   108    1
   178    85    87    1
   179    95    93   ar
   180    25    22    1
   181    17    16    2
   182    93    92    1
   183   104   103    1
   184    88    89    1
   185   109   111   ar
   186   109   108    1
   187    89    92    1
   188    89    90    1
   189    81    82    1
   190   103   101   am
   191    82    84    2
   192    87    86    1
   193    99    90   am
   194    99   100    1
   195    22    21    1
   196    22    23    1
   197    16    13    1
   198    90    91    2
   199   101   100    1
   200   101   102    2
   201    13    12    1
   202    13    14    1
   203    24    23    2
   204    84    86    1
   205    15    14    2
