@<TRIPOS>MOLECULE
tmp/2od6A00.pdb
 178 170 0 0 0
SMALL
GASTEIGER

@<TRIPOS>ATOM
      1  N         21.4770   44.1270   25.3050 N.3     8  SER8       -0.1217
      2  CA        20.0620   44.1070   24.9890 C.3     8  SER8        0.1889
      3  C         19.9040   44.4080   23.5040 C.2     8  SER8        0.2288
      4  O         20.6640   45.2300   22.9690 O.2     8  SER8       -0.2866
      5  CB        19.3590   45.1390   25.8060 C.3     8  SER8        0.2089
      6  OG        19.4700   44.8620   27.1730 O.3     8  SER8       -0.2183
      7  N         16.9150   45.5540   21.0670 N.3    10  THR10      -0.1218
      8  CA        15.4880   45.9630   20.9560 C.3    10  THR10       0.1862
      9  C         15.1570   45.9760   19.4880 C.2    10  THR10       0.2287
     10  O         15.8490   46.6770   18.6970 O.2    10  THR10      -0.2866
     11  CB        15.3330   47.3460   21.5890 C.3    10  THR10       0.1770
     12  OG1       15.6640   47.2620   22.9800 O.3    10  THR10      -0.2211
     13  CG2       13.9320   47.8900   21.4380 C.3    10  THR10       0.0375
     14  N         11.2950   58.0030   13.6100 N.3    22  PHE22      -0.1241
     15  CA        11.9470   57.4170   14.7630 C.3    22  PHE22       0.1605
     16  C         13.4280   57.4960   14.6850 C.2    22  PHE22       0.2264
     17  O         14.0540   57.9070   15.6800 O.2    22  PHE22      -0.2867
     18  CB        11.5170   55.9440   14.9120 C.3    22  PHE22       0.0534
     19  CG        12.0170   55.3080   16.1400 C.ar   22  PHE22      -0.0203
     20  CD1       11.3530   55.4920   17.3490 C.ar   22  PHE22      -0.0042
     21  CD2       13.1790   54.5120   16.1030 C.ar   22  PHE22      -0.0042
     22  CE1       11.8490   54.9090   18.5110 C.ar   22  PHE22      -0.0003
     23  CE2       13.6610   53.9260   17.2420 C.ar   22  PHE22      -0.0003
     24  CZ        13.0290   54.1490   18.4520 C.ar   22  PHE22      -0.0000
     25  N         14.4760   61.0670   15.3620 N.3    25  ALA25      -0.1231
     26  CA        14.2980   61.3870   16.7930 C.3    25  ALA25       0.1694
     27  C         15.4570   60.8530   17.6080 C.2    25  ALA25       0.2591
     28  O         16.0440   61.5540   18.4560 O.2    25  ALA25      -0.2718
     29  CB        12.9420   60.8590   17.3060 C.3    25  ALA25       0.0304
     30  N         15.8540   59.6080   17.3370 N.am   26  VAL26      -0.1980
     31  CA        16.8720   58.9540   18.1280 C.3    26  VAL26       0.1595
     32  C         18.2080   59.6420   17.8370 C.2    26  VAL26       0.2287
     33  O         19.0430   59.8950   18.7430 O.2    26  VAL26      -0.2864
     34  CB        16.9280   57.3950   17.8090 C.3    26  VAL26       0.0276
     35  CG1       18.2070   56.7370   18.3940 C.3    26  VAL26       0.0022
     36  CG2       15.6090   56.6850   18.2420 C.3    26  VAL26       0.0022
     37  N         18.3210   63.3500   19.4630 N.3    29  THR29      -0.1218
     38  CA        18.3450   63.4340   20.9280 C.3    29  THR29       0.1862
     39  C         19.5820   62.7670   21.5380 C.2    29  THR29       0.2287
     40  O         19.8180   62.8230   22.7620 O.2    29  THR29      -0.2866
     41  CB        17.0630   62.8360   21.5200 C.3    29  THR29       0.1770
     42  OG1       16.9600   61.4490   21.1840 O.3    29  THR29      -0.2211
     43  CG2       15.8330   63.5830   20.9750 C.3    29  THR29       0.0375
     44  N         21.0060   61.6230   25.5560 N.3    33  TRP33      -0.1241
     45  CA        20.9170   60.2930   26.1440 C.3    33  TRP33       0.1605
     46  C         22.2090   59.4920   26.0810 C.2    33  TRP33       0.2264
     47  O         22.4850   58.7190   27.0000 O.2    33  TRP33      -0.2867
     48  CB        19.7200   59.4980   25.6140 C.3    33  TRP33       0.0550
     49  CG        19.6940   59.2180   24.1570 C.ar   33  TRP33       0.0003
     50  CD1       18.9970   59.9110   23.2100 C.ar   33  TRP33       0.0946
     51  CD2       20.3540   58.1500   23.4710 C.ar   33  TRP33       0.0152
     52  NE1       19.2120   59.3730   21.9780 N.ar   33  TRP33      -0.2442
     53  CE2       20.0350   58.2830   22.1020 C.ar   33  TRP33       0.0810
     54  CE3       21.1830   57.0920   23.8780 C.ar   33  TRP33       0.0012
     55  CZ2       20.5210   57.4020   21.1280 C.ar   33  TRP33       0.0191
     56  CZ3       21.6840   56.2110   22.9040 C.ar   33  TRP33       0.0001
     57  CH2       21.3510   56.3760   21.5430 C.ar   33  TRP33       0.0015
     58  N         26.2710   51.8540   21.5470 N.3    44  PHE44      -0.1241
     59  CA        24.9120   51.7450   20.9970 C.3    44  PHE44       0.1605
     60  C         24.9660   51.6170   19.4540 C.2    44  PHE44       0.2264
     61  O         25.8480   52.1870   18.8240 O.2    44  PHE44      -0.2867
     62  CB        24.1070   52.9780   21.3550 C.3    44  PHE44       0.0534
     63  CG        22.7950   53.0760   20.6340 C.ar   44  PHE44      -0.0203
     64  CD1       21.6740   52.4990   21.1650 C.ar   44  PHE44      -0.0042
     65  CD2       22.6810   53.7900   19.4240 C.ar   44  PHE44      -0.0042
     66  CE1       20.4570   52.5870   20.5120 C.ar   44  PHE44      -0.0003
     67  CE2       21.4610   53.8880   18.7610 C.ar   44  PHE44      -0.0003
     68  CZ        20.3470   53.3010   19.3200 C.ar   44  PHE44      -0.0000
     69  N         22.3280   47.6830   22.7530 N.3    60  TYR60      -0.1241
     70  CA        22.9180   48.3770   23.8870 C.3    60  TYR60       0.1605
     71  C         23.9580   47.4650   24.5170 C.2    60  TYR60       0.2264
     72  O         23.6170   46.4060   25.0240 O.2    60  TYR60      -0.2867
     73  CB        21.8250   48.6610   24.8960 C.3    60  TYR60       0.0534
     74  CG        20.7660   49.5290   24.3680 C.ar   60  TYR60      -0.0201
     75  CD1       19.6940   48.9660   23.6760 C.ar   60  TYR60      -0.0009
     76  CD2       20.8120   50.9100   24.5110 C.ar   60  TYR60      -0.0009
     77  CE1       18.6540   49.7550   23.1440 C.ar   60  TYR60       0.0417
     78  CE2       19.7510   51.7240   23.9770 C.ar   60  TYR60       0.0417
     79  CZ        18.7100   51.1190   23.3070 C.ar   60  TYR60       0.1957
     80  OH        17.7270   51.8890   22.8000 O.3    60  TYR60      -0.2866
     81  N         26.4140   46.8920   27.4430 N.3    62  TYR62      -0.1241
     82  CA        26.7900   47.3270   28.7670 C.3    62  TYR62       0.1605
     83  C         28.0050   46.5940   29.3480 C.2    62  TYR62       0.2264
     84  O         28.2960   45.4350   29.0080 O.2    62  TYR62      -0.2867
     85  CB        25.6200   47.1410   29.7040 C.3    62  TYR62       0.0534
     86  CG        24.2990   47.7290   29.2270 C.ar   62  TYR62      -0.0201
     87  CD1       24.0390   49.0780   29.3470 C.ar   62  TYR62      -0.0009
     88  CD2       23.3020   46.9190   28.6980 C.ar   62  TYR62      -0.0009
     89  CE1       22.8140   49.6230   28.9290 C.ar   62  TYR62       0.0417
     90  CE2       22.0830   47.4510   28.3040 C.ar   62  TYR62       0.0417
     91  CZ        21.8500   48.8030   28.4480 C.ar   62  TYR62       0.1957
     92  OH        20.6410   49.3540   28.0860 O.3    62  TYR62      -0.2866
     93  N         23.9370   47.7250   33.2460 N.3    68  PHE68      -0.1241
     94  CA        22.6250   47.5010   32.6360 C.3    68  PHE68       0.1605
     95  C         21.5080   48.0510   33.5320 C.2    68  PHE68       0.2264
     96  O         20.6630   48.8400   33.0770 O.2    68  PHE68      -0.2867
     97  CB        22.3970   46.0050   32.3210 C.3    68  PHE68       0.0534
     98  CG        20.9380   45.6320   32.2140 C.ar   68  PHE68      -0.0203
     99  CD1       20.2030   45.9630   31.0770 C.ar   68  PHE68      -0.0042
    100  CD2       20.3110   44.9530   33.2470 C.ar   68  PHE68      -0.0042
    101  CE1       18.8620   45.6470   30.9840 C.ar   68  PHE68      -0.0003
    102  CE2       18.9600   44.6320   33.1590 C.ar   68  PHE68      -0.0003
    103  CZ        18.2360   44.9750   32.0330 C.ar   68  PHE68      -0.0000
    104  N         18.7190   51.0450   32.6990 N.3    72  ILE72      -0.1245
    105  CA        17.2590   50.8660   32.7810 C.3    72  ILE72       0.1561
    106  C         16.6050   51.8410   33.7600 C.2    72  ILE72       0.2260
    107  O         15.5290   52.3770   33.5100 O.2    72  ILE72      -0.2867
    108  CB        16.9150   49.4130   33.2250 C.3    72  ILE72       0.0252
    109  CG1       17.3690   48.4130   32.1690 C.3    72  ILE72       0.0019
    110  CG2       15.4400   49.2710   33.5580 C.3    72  ILE72       0.0019
    111  CD1       17.3050   48.9010   30.7420 C.3    72  ILE72       0.0001
    112  N         16.6080   55.1820   32.0790 N.3    75  LEU75      -0.1245
    113  CA        15.6450   55.3000   30.9960 C.3    75  LEU75       0.1561
    114  C         14.2200   55.3660   31.5300 C.2    75  LEU75       0.2260
    115  O         13.4550   56.2020   31.0810 O.2    75  LEU75      -0.2867
    116  CB        15.8120   54.2000   29.9550 C.3    75  LEU75       0.0270
    117  CG        17.0440   54.2120   29.0210 C.3    75  LEU75       0.0019
    118  CD1       17.0610   52.9240   28.1900 C.3    75  LEU75       0.0001
    119  CD2       17.0880   55.4230   28.0950 C.3    75  LEU75       0.0001
    120  N         12.6140   58.8300   29.9710 N.3    79  PHE79      -0.1241
    121  CA        11.6720   58.7260   28.8550 C.3    79  PHE79       0.1605
    122  C         10.2950   58.2540   29.3510 C.2    79  PHE79       0.2264
    123  O          9.2550   58.6250   28.7790 O.2    79  PHE79      -0.2867
    124  CB        12.2110   57.7960   27.7520 C.3    79  PHE79       0.0534
    125  CG        13.4640   58.2940   27.0100 C.ar   79  PHE79      -0.0203
    126  CD1       13.7580   59.6410   26.9830 C.ar   79  PHE79      -0.0042
    127  CD2       14.2480   57.3630   26.3320 C.ar   79  PHE79      -0.0042
    128  CE1       14.8640   60.0390   26.2610 C.ar   79  PHE79      -0.0003
    129  CE2       15.3440   57.7760   25.6150 C.ar   79  PHE79      -0.0003
    130  CZ        15.6390   59.1290   25.5890 C.ar   79  PHE79      -0.0000
    131  N          8.0950   61.2550   24.7670 N.3    85  PHE85      -0.1241
    132  CA         8.6470   60.0220   24.2160 C.3    85  PHE85       0.1605
    133  C          7.5640   58.9410   24.0120 C.2    85  PHE85       0.2264
    134  O          7.5550   58.2620   22.9930 O.2    85  PHE85      -0.2867
    135  CB         9.7680   59.4990   25.1270 C.3    85  PHE85       0.0534
    136  CG        10.5150   58.3160   24.4910 C.ar   85  PHE85      -0.0203
    137  CD1       11.3210   58.5350   23.3740 C.ar   85  PHE85      -0.0042
    138  CD2       10.4050   57.0280   24.9980 C.ar   85  PHE85      -0.0042
    139  CE1       11.9700   57.4940   22.7360 C.ar   85  PHE85      -0.0003
    140  CE2       11.0920   55.9980   24.3700 C.ar   85  PHE85      -0.0003
    141  CZ        11.8560   56.2110   23.2410 C.ar   85  PHE85      -0.0000
    142  N          5.6300   59.2210   20.6910 N.3    88  LEU88      -0.1245
    143  CA         6.4240   58.7800   19.5230 C.3    88  LEU88       0.1561
    144  C          6.3570   57.2610   19.3480 C.2    88  LEU88       0.2260
    145  O          5.9210   56.7320   18.3270 O.2    88  LEU88      -0.2867
    146  CB         7.9040   59.1950   19.6390 C.3    88  LEU88       0.0270
    147  CG         8.2050   60.6860   19.4900 C.3    88  LEU88       0.0019
    148  CD1        9.6710   60.9130   19.7760 C.3    88  LEU88       0.0001
    149  CD2        7.8880   61.1920   18.1070 C.3    88  LEU88       0.0001
    150  N          7.6720   47.2830   20.0750 N.3    94  PHE94      -0.1241
    151  CA         9.1450   47.1130   20.4460 C.3    94  PHE94       0.1605
    152  C          9.2110   45.8030   21.1630 C.2    94  PHE94       0.2264
    153  O          8.3150   45.5160   21.9310 O.2    94  PHE94      -0.2867
    154  CB         9.5950   48.1430   21.4560 C.3    94  PHE94       0.0534
    155  CG         9.5800   49.5230   20.9440 C.ar   94  PHE94      -0.0203
    156  CD1        8.4280   50.2770   21.0100 C.ar   94  PHE94      -0.0042
    157  CD2       10.7090   50.0790   20.3910 C.ar   94  PHE94      -0.0042
    158  CE1        8.4000   51.5710   20.5040 C.ar   94  PHE94      -0.0003
    159  CE2       10.7020   51.3680   19.8870 C.ar   94  PHE94      -0.0003
    160  CZ         9.5480   52.1250   19.9520 C.ar   94  PHE94      -0.0000
    161  N         12.3230   43.4270   23.2540 N.3    96  THR96      -0.1218
    162  CA        13.7360   43.3950   23.6550 C.3    96  THR96       0.1862
    163  C         14.1870   42.0230   24.1060 C.2    96  THR96       0.2287
    164  O         13.5050   41.3600   24.8710 O.2    96  THR96      -0.2866
    165  CB        14.0600   44.4220   24.7450 C.3    96  THR96       0.1770
    166  OG1       13.6850   45.7150   24.2800 O.3    96  THR96      -0.2211
    167  CG2       15.5760   44.4490   25.0360 C.3    96  THR96       0.0375
    168  N         17.1080   40.6480   26.2100 N.3    98  ARG98      -0.1245
    169  CA        18.2060   40.9920   27.1150 C.3    98  ARG98       0.1563
    170  C         19.0590   39.7550   27.3770 C.2    98  ARG98       0.2260
    171  O         18.5260   38.6850   27.7310 O.2    98  ARG98      -0.2867
    172  CB        17.6540   41.5590   28.4160 C.3    98  ARG98       0.0307
    173  CG        16.7290   42.7610   28.2010 C.3    98  ARG98       0.0489
    174  CD        16.3100   43.4160   29.5000 C.3    98  ARG98       0.2205
    175  NE        15.9000   44.8010   29.2750 N.pl3  98  ARG98      -0.0865
    176  CZ        14.6790   45.1870   28.9120 C.cat  98  ARG98       0.5346
    177  NH1       13.6950   44.3070   28.7550 N.pl3  98  ARG98       0.1354
    178  NH2       14.4340   46.4800   28.7240 N.pl3  98  ARG98       0.1354
@<TRIPOS>BOND
     1    14    15    1
     2    16    15    1
     3    16    17    2
     4    15    18    1
     5    18    19    1
     6    25    26    1
     7    21    19   ar
     8    21    23   ar
     9    19    20   ar
    10    26    29    1
    11    26    27    1
    12    23    24   ar
    13    30    27   am
    14    30    31    1
    15    20    22   ar
    16    27    28    2
    17    34    31    1
    18    34    36    1
    19    34    35    1
    20    32    31    1
    21    32    33    2
    22   149   147    1
    23   145   144    2
    24    24    22   ar
    25    10     9    2
    26    67    68   ar
    27    67    65   ar
    28    61    60    2
    29    68    66   ar
    30   144   143    1
    31    65    63   ar
    32    60    59    1
    33    37    38    1
    34     9     8    1
    35   147   146    1
    36   147   148    1
    37   143   146    1
    38   143   142    1
    39   159   160   ar
    40   159   157   ar
    41   160   158   ar
    42   150   151    1
    43   157   155   ar
    44   151   152    1
    45   151   154    1
    46   158   156   ar
    47    66    64   ar
    48    63    64   ar
    49    63    62    1
    50    38    41    1
    51    38    39    1
    52   155   156   ar
    53   155   154    1
    54     8     7    1
    55     8    11    1
    56    43    41    1
    57    59    62    1
    58    59    58    1
    59    55    57   ar
    60    55    53   ar
    61   152   153    2
    62    42    41    1
    63    13    11    1
    64    39    40    2
    65    57    56   ar
    66    11    12    1
    67    52    53   ar
    68    52    50   ar
    69    53    51   ar
    70   139   141   ar
    71   139   137   ar
    72    69    70    1
    73    80    79    1
    74    56    54   ar
    75     4     3    2
    76   134   133    2
    77    77    79   ar
    78    77    75   ar
    79    50    49   ar
    80   141   140   ar
    81   161   162    1
    82    79    78   ar
    83   137   136   ar
    84    51    54   ar
    85    51    49   ar
    86     3     2    1
    87   162   163    1
    88   162   165    1
    89    75    74   ar
    90    70    71    1
    91    70    73    1
    92    78    76   ar
    93   133   132    1
    94   163   164    2
    95    49    48    1
    96   132   131    1
    97   132   135    1
    98   166   165    1
    99    74    76   ar
   100    74    73    1
   101   140   138   ar
   102   136   138   ar
   103   136   135    1
   104    71    72    2
   105   165   167    1
   106     2     1    1
   107     2     5    1
   108    44    45    1
   109   130   129   ar
   110   130   128   ar
   111    48    45    1
   112   129   127   ar
   113     5     6    1
   114    46    45    1
   115    46    47    2
   116   168   169    1
   117   128   126   ar
   118   127   125   ar
   119   126   125   ar
   120   125   124    1
   121   169   170    1
   122   169   172    1
   123   170   171    2
   124    81    82    1
   125   124   121    1
   126    92    91    1
   127   119   117    1
   128   118   117    1
   129   173   172    1
   130   173   174    1
   131    90    91   ar
   132    90    88   ar
   133    91    89   ar
   134    88    86   ar
   135   178   176    1
   136   177   176    1
   137    82    83    1
   138    82    85    1
   139   123   122    2
   140   121   122    1
   141   121   120    1
   142   176   175    2
   143    89    87   ar
   144    84    83    2
   145   117   116    1
   146    86    87   ar
   147    86    85    1
   148   175   174    1
   149   116   113    1
   150   111   109    1
   151   101    99   ar
   152   101   103   ar
   153   113   114    1
   154   113   112    1
   155    99    98   ar
   156   115   114    2
   157   103   102   ar
   158   109   108    1
   159    98    97    1
   160    98   100   ar
   161    97    94    1
   162    94    93    1
   163    94    95    1
   164   104   105    1
   165   105   108    1
   166   105   106    1
   167    96    95    2
   168   102   100   ar
   169   108   110    1
   170   107   106    2
