@<TRIPOS>MOLECULE
tmp/2od6D00.pdb
 130 125 0 0 0
SMALL
GASTEIGER

@<TRIPOS>ATOM
      1  N         32.7090   48.6490   56.5110 N.3     9  THR9       -0.1218
      2  CA        32.1560   49.9540   56.2250 C.3     9  THR9        0.1862
      3  C         32.1460   50.2520   54.7400 C.2     9  THR9        0.2287
      4  O         33.1820   50.2580   54.1080 O.2     9  THR9       -0.2866
      5  CB        32.8540   51.0420   57.0280 C.3     9  THR9        0.1770
      6  OG1       32.5670   50.8140   58.4120 O.3     9  THR9       -0.2211
      7  CG2       32.3250   52.4400   56.6100 C.3     9  THR9        0.0375
      8  N         39.2690   61.4980   50.2070 N.3    21  PHE21      -0.1241
      9  CA        39.1100   60.6020   51.3240 C.3    21  PHE21       0.1605
     10  C         40.2250   59.5790   51.3810 C.2    21  PHE21       0.2264
     11  O         40.9000   59.4540   52.4130 O.2    21  PHE21      -0.2867
     12  CB        37.7830   59.8800   51.2870 C.3    21  PHE21       0.0534
     13  CG        37.6370   58.8830   52.3840 C.ar   21  PHE21      -0.0203
     14  CD1       37.2790   59.2910   53.6540 C.ar   21  PHE21      -0.0042
     15  CD2       37.8620   57.5270   52.1510 C.ar   21  PHE21      -0.0042
     16  CE1       37.1510   58.3790   54.6780 C.ar   21  PHE21      -0.0003
     17  CE2       37.7110   56.6100   53.1730 C.ar   21  PHE21      -0.0003
     18  CZ        37.3580   57.0390   54.4280 C.ar   21  PHE21      -0.0000
     19  N         43.6860   60.9860   52.2360 N.3    24  ALA24      -0.1231
     20  CA        43.7400   61.4100   53.6100 C.3    24  ALA24       0.1694
     21  C         43.8860   60.2280   54.5670 C.2    24  ALA24       0.2591
     22  O         44.6420   60.2910   55.5580 O.2    24  ALA24      -0.2718
     23  CB        42.5120   62.2290   53.9370 C.3    24  ALA24       0.0304
     24  N         43.1480   59.1520   54.2980 N.am   25  VAL25      -0.1980
     25  CA        43.2770   57.9010   55.0550 C.3    25  VAL25       0.1595
     26  C         44.6990   57.3280   55.0200 C.2    25  VAL25       0.2287
     27  O         45.2760   56.9460   56.0440 O.2    25  VAL25      -0.2864
     28  CB        42.2580   56.8570   54.5410 C.3    25  VAL25       0.0276
     29  CG1       42.5660   55.4120   55.0930 C.3    25  VAL25       0.0022
     30  CG2       40.8330   57.3070   54.8950 C.3    25  VAL25       0.0022
     31  N         47.3550   59.5610   56.8210 N.3    28  THR28      -0.1218
     32  CA        47.2720   59.6470   58.2660 C.3    28  THR28       0.1862
     33  C         47.4640   58.3000   58.9420 C.2    28  THR28       0.2287
     34  O         47.4500   58.2300   60.1810 O.2    28  THR28      -0.2866
     35  CB        45.9300   60.2720   58.7370 C.3    28  THR28       0.1770
     36  OG1       44.8450   59.5080   58.2260 O.3    28  THR28      -0.2211
     37  CG2       45.8310   61.7810   58.2930 C.3    28  THR28       0.0375
     38  N         46.5540   56.5660   63.0350 N.3    32  TRP32      -0.1241
     39  CA        45.3510   55.8540   63.4260 C.3    32  TRP32       0.1605
     40  C         45.5420   54.3420   63.4200 C.2    32  TRP32       0.2264
     41  O         44.8780   53.6390   64.1840 O.2    32  TRP32      -0.2867
     42  CB        44.1140   56.2880   62.6100 C.3    32  TRP32       0.0550
     43  CG        44.1540   56.0160   61.1240 C.ar   32  TRP32       0.0003
     44  CD1       44.4120   56.9030   60.1640 C.ar   32  TRP32       0.0946
     45  CD2       43.9260   54.7640   60.4680 C.ar   32  TRP32       0.0152
     46  NE1       44.3420   56.3170   58.9320 N.ar   32  TRP32      -0.2442
     47  CE2       44.0460   54.9950   59.0890 C.ar   32  TRP32       0.0810
     48  CE3       43.5550   53.4920   60.9050 C.ar   32  TRP32       0.0012
     49  CZ2       43.8640   53.9890   58.1380 C.ar   32  TRP32       0.0191
     50  CZ3       43.3690   52.4930   59.9630 C.ar   32  TRP32       0.0001
     51  CH2       43.5310   52.7440   58.5910 C.ar   32  TRP32       0.0015
     52  N         43.3270   45.9210   58.8900 N.3    43  PHE43      -0.1241
     53  CA        42.4340   46.8060   58.1370 C.3    43  PHE43       0.1605
     54  C         42.6980   46.6260   56.6340 C.2    43  PHE43       0.2264
     55  O         43.8020   46.3940   56.2150 O.2    43  PHE43      -0.2867
     56  CB        42.6630   48.2360   58.5710 C.3    43  PHE43       0.0534
     57  CG        42.1110   49.2670   57.6360 C.ar   43  PHE43      -0.0203
     58  CD1       42.8580   49.6920   56.5380 C.ar   43  PHE43      -0.0042
     59  CD2       40.8570   49.8290   57.8600 C.ar   43  PHE43      -0.0042
     60  CE1       42.3660   50.6500   55.6670 C.ar   43  PHE43      -0.0003
     61  CE2       40.3590   50.8060   56.9980 C.ar   43  PHE43      -0.0003
     62  CZ        41.1170   51.2090   55.8910 C.ar   43  PHE43      -0.0000
     63  N         37.5270   46.0200   59.1120 N.3    59  TYR59      -0.1241
     64  CA        38.2690   46.1400   60.3850 C.3    59  TYR59       0.1605
     65  C         38.0800   44.8260   61.1170 C.2    59  TYR59       0.2264
     66  O         36.9680   44.4700   61.5130 O.2    59  TYR59      -0.2867
     67  CB        37.6930   47.2810   61.2350 C.3    59  TYR59       0.0534
     68  CG        37.6090   48.6460   60.5650 C.ar   59  TYR59      -0.0201
     69  CD1       36.5540   48.9770   59.7230 C.ar   59  TYR59      -0.0009
     70  CD2       38.5630   49.6040   60.8230 C.ar   59  TYR59      -0.0009
     71  CE1       36.4720   50.2460   59.1420 C.ar   59  TYR59       0.0417
     72  CE2       38.5080   50.8440   60.2550 C.ar   59  TYR59       0.0417
     73  CZ        37.4710   51.1640   59.4070 C.ar   59  TYR59       0.1957
     74  OH        37.4610   52.4050   58.8700 O.3    59  TYR59      -0.2866
     75  N         37.2920   55.4320   66.9850 N.3    74  LEU74      -0.1245
     76  CA        36.8440   55.9570   65.6940 C.3    74  LEU74       0.1561
     77  C         35.8690   57.1210   65.8400 C.2    74  LEU74       0.2260
     78  O         36.0180   58.1320   65.1530 O.2    74  LEU74      -0.2867
     79  CB        36.2740   54.8470   64.8120 C.3    74  LEU74       0.0270
     80  CG        37.2980   53.9000   64.1410 C.3    74  LEU74       0.0019
     81  CD1       36.5680   52.7720   63.4870 C.3    74  LEU74       0.0001
     82  CD2       38.1940   54.5930   63.1530 C.3    74  LEU74       0.0001
     83  N         37.0710   60.6910   64.6840 N.3    78  PHE78      -0.1241
     84  CA        36.4980   60.9920   63.3670 C.3    78  PHE78       0.1605
     85  C         35.0020   61.2420   63.3750 C.2    78  PHE78       0.2264
     86  O         34.5150   62.2970   62.9230 O.2    78  PHE78      -0.2867
     87  CB        36.7770   59.8560   62.3970 C.3    78  PHE78       0.0534
     88  CG        38.2350   59.5520   62.2400 C.ar   78  PHE78      -0.0203
     89  CD1       39.0640   60.4510   61.5940 C.ar   78  PHE78      -0.0042
     90  CD2       38.7910   58.3600   62.7460 C.ar   78  PHE78      -0.0042
     91  CE1       40.3850   60.1890   61.4500 C.ar   78  PHE78      -0.0003
     92  CE2       40.1330   58.0850   62.5950 C.ar   78  PHE78      -0.0003
     93  CZ        40.9370   58.9910   61.9510 C.ar   78  PHE78      -0.0000
     94  N         36.4790   66.6220   60.3030 N.3    84  PHE84      -0.1241
     95  CA        36.4990   65.3440   59.5200 C.3    84  PHE84       0.1605
     96  C         35.2050   65.1510   58.7850 C.2    84  PHE84       0.2264
     97  O         35.1940   64.8430   57.5870 O.2    84  PHE84      -0.2867
     98  CB        36.7110   64.0660   60.3680 C.3    84  PHE84       0.0534
     99  CG        36.4400   62.7590   59.5930 C.ar   84  PHE84      -0.0203
    100  CD1       37.3750   62.2570   58.6820 C.ar   84  PHE84      -0.0042
    101  CD2       35.2520   62.0570   59.7470 C.ar   84  PHE84      -0.0042
    102  CE1       37.1260   61.0930   57.9550 C.ar   84  PHE84      -0.0003
    103  CE2       35.0140   60.9010   59.0130 C.ar   84  PHE84      -0.0003
    104  CZ        35.9590   60.4270   58.1220 C.ar   84  PHE84      -0.0000
    105  N         34.8500   66.9900   55.6220 N.3    87  LEU87      -0.1245
    106  CA        35.6830   66.4120   54.5780 C.3    87  LEU87       0.1561
    107  C         34.9050   65.3900   53.7380 C.2    87  LEU87       0.2260
    108  O         35.1300   65.2920   52.5100 O.2    87  LEU87      -0.2867
    109  CB        36.9170   65.7470   55.1990 C.3    87  LEU87       0.0270
    110  CG        38.0180   65.3940   54.2140 C.3    87  LEU87       0.0019
    111  CD1       38.8250   66.6290   53.8600 C.3    87  LEU87       0.0001
    112  CD2       38.8750   64.2520   54.8050 C.3    87  LEU87       0.0001
    113  N         28.1370   56.6710   54.3100 N.3    93  PHE93      -0.1241
    114  CA        28.7980   55.5610   54.9750 C.3    93  PHE93       0.1605
    115  C         27.7440   54.6610   55.6090 C.2    93  PHE93       0.2264
    116  O         26.8770   55.1600   56.3330 O.2    93  PHE93      -0.2867
    117  CB        29.7230   56.0410   56.0820 C.3    93  PHE93       0.0534
    118  CG        30.9320   56.7900   55.5960 C.ar   93  PHE93      -0.0203
    119  CD1       30.8120   58.0460   55.0250 C.ar   93  PHE93      -0.0042
    120  CD2       32.1920   56.2730   55.7650 C.ar   93  PHE93      -0.0042
    121  CE1       31.9250   58.7350   54.5910 C.ar   93  PHE93      -0.0003
    122  CE2       33.3020   56.9600   55.3180 C.ar   93  PHE93      -0.0003
    123  CZ        33.1650   58.1840   54.7220 C.ar   93  PHE93      -0.0000
    124  N         27.5760   50.7970   57.7850 N.3    95  THR95      -0.1218
    125  CA        28.4020   49.8070   58.4650 C.3    95  THR95       0.1862
    126  C         27.6420   48.5370   58.8970 C.2    95  THR95       0.2287
    127  O         26.5660   48.6070   59.4730 O.2    95  THR95      -0.2866
    128  CB        29.1650   50.4340   59.6750 C.3    95  THR95       0.1770
    129  OG1       30.0300   51.4870   59.2080 O.3    95  THR95      -0.2211
    130  CG2       30.0640   49.3750   60.3920 C.3    95  THR95       0.0375
@<TRIPOS>BOND
     1     8     9    1
     2    12     9    1
     3    12    13    1
     4     9    10    1
     5    10    11    2
     6    15    13   ar
     7    15    17   ar
     8    19    20    1
     9    13    14   ar
    10   108   107    2
    11    17    18   ar
    12    20    23    1
    13    20    21    1
    14    14    16   ar
    15   107   106    1
    16   111   110    1
    17     4     3    2
    18   110   112    1
    19   110   109    1
    20    24    21   am
    21    24    25    1
    22   113   114    1
    23    18    16   ar
    24    28    30    1
    25    28    25    1
    26    28    29    1
    27    21    22    2
    28   106   109    1
    29   106   105    1
    30   121   123   ar
    31   121   119   ar
    32   123   122   ar
    33     3     2    1
    34   114   115    1
    35   114   117    1
    36    26    25    1
    37    26    27    2
    38   119   118   ar
    39   122   120   ar
    40   118   120   ar
    41   118   117    1
    42   115   116    2
    43    60    62   ar
    44    60    58   ar
    45    62    61   ar
    46    55    54    2
    47     2     1    1
    48     2     5    1
    49    58    57   ar
    50     7     5    1
    51    54    53    1
    52    31    32    1
    53    61    59   ar
    54     5     6    1
    55    97    96    2
    56    57    59   ar
    57    57    56    1
    58   124   125    1
    59   102   104   ar
    60   102   100   ar
    61   104   103   ar
    62    53    56    1
    63    53    52    1
    64    49    51   ar
    65    49    47   ar
    66    36    35    1
    67    32    35    1
    68    32    33    1
    69    37    35    1
    70   125   126    1
    71   125   128    1
    72    51    50   ar
    73   100    99   ar
    74    96    95    1
    75    74    73    1
    76   126   127    2
    77    46    47   ar
    78    46    44   ar
    79    33    34    2
    80   103   101   ar
    81    47    45   ar
    82    63    64    1
    83    71    73   ar
    84    71    69   ar
    85   129   128    1
    86    73    72   ar
    87    95    94    1
    88    95    98    1
    89    99   101   ar
    90    99    98    1
    91   128   130    1
    92    69    68   ar
    93    50    48   ar
    94    44    43   ar
    95    72    70   ar
    96    64    65    1
    97    64    67    1
    98    45    48   ar
    99    45    43   ar
   100    68    70   ar
   101    68    67    1
   102    65    66    2
   103    43    42    1
   104    91    89   ar
   105    91    93   ar
   106    89    88   ar
   107    93    92   ar
   108    88    87    1
   109    88    90   ar
   110    87    84    1
   111    92    90   ar
   112    42    39    1
   113    86    85    2
   114    38    39    1
   115    82    80    1
   116    84    85    1
   117    84    83    1
   118    40    39    1
   119    40    41    2
   120    81    80    1
   121    80    79    1
   122    79    76    1
   123    78    77    2
   124    76    77    1
   125    76    75    1
