@<TRIPOS>MOLECULE
tmp/2od8A00.pdb
 206 198 0 0 0
SMALL
GASTEIGER

@<TRIPOS>ATOM
      1  N        127.0950   11.3040   48.5970 N.3    40  VAL40      -0.1245
      2  CA       128.2400   11.9440   47.9500 C.3    40  VAL40       0.1561
      3  C        128.0190   11.9360   46.4320 C.2    40  VAL40       0.2260
      4  O        127.4810   10.9680   45.8860 O.2    40  VAL40      -0.2867
      5  CB       129.5630   11.1850   48.2640 C.3    40  VAL40       0.0252
      6  CG1      130.7820   12.0460   47.9490 C.3    40  VAL40       0.0019
      7  CG2      129.5990   10.7350   49.7160 C.3    40  VAL40       0.0019
      8  N        132.1180   12.9010   41.7450 N.3    43  SER43      -0.1202
      9  CA       133.4770   13.4410   41.7650 C.3    43  SER43       0.2020
     10  C        134.1010   13.4190   43.1600 C.2    43  SER43       0.2619
     11  O        135.2780   13.7610   43.3190 O.2    43  SER43      -0.2717
     12  CB       133.4910   14.8650   41.2080 C.3    43  SER43       0.2103
     13  OG       132.7260   15.7360   42.0250 O.3    43  SER43      -0.2182
     14  N        133.3030   13.0170   44.1520 N.am   44  ARG44      -0.1965
     15  CA       133.7120   12.9450   45.5600 C.3    44  ARG44       0.1729
     16  C        134.1160   14.3060   46.1220 C.2    44  ARG44       0.2616
     17  O        135.0800   14.4080   46.8780 O.2    44  ARG44      -0.2715
     18  CB       134.8500   11.9310   45.7670 C.3    44  ARG44       0.0348
     19  CG       134.5350   10.5000   45.3570 C.3    44  ARG44       0.0492
     20  CD       133.2590   10.0140   46.0120 C.3    44  ARG44       0.2205
     21  NE       133.2640    8.5720   46.2380 N.pl3  44  ARG44      -0.0865
     22  CZ       132.1720    7.8450   46.4670 C.cat  44  ARG44       0.5346
     23  NH1      130.9740    8.4200   46.4880 N.pl3  44  ARG44       0.1354
     24  NH2      132.2790    6.5360   46.6640 N.pl3  44  ARG44       0.1354
     25  N        133.3800   15.3490   45.7460 N.am   45  VAL45      -0.1963
     26  CA       133.7050   16.7080   46.1650 C.3    45  VAL45       0.1727
     27  C        132.6000   17.2740   47.0650 C.2    45  VAL45       0.2616
     28  O        132.8770   17.9520   48.0590 O.2    45  VAL45      -0.2715
     29  CB       133.9520   17.6290   44.9390 C.3    45  VAL45       0.0290
     30  CG1      134.2790   19.0420   45.3730 C.3    45  VAL45       0.0023
     31  CG2      135.0860   17.0890   44.0830 C.3    45  VAL45       0.0023
     32  N        131.3510   16.9710   46.7220 N.am   46  LEU46      -0.1963
     33  CA       130.1960   17.4620   47.4690 C.3    46  LEU46       0.1728
     34  C        129.4830   16.3500   48.2400 C.2    46  LEU46       0.2616
     35  O        129.1580   15.3040   47.6760 O.2    46  LEU46      -0.2715
     36  CB       129.2100   18.1580   46.5250 C.3    46  LEU46       0.0311
     37  CG       127.9450   18.7590   47.1430 C.3    46  LEU46       0.0022
     38  CD1      128.2790   19.9670   47.9960 C.3    46  LEU46       0.0001
     39  CD2      126.9560   19.1460   46.0690 C.3    46  LEU46       0.0001
     40  N        129.2470   16.5830   49.5290 N.am   47  LEU47      -0.1977
     41  CA       128.4210   15.6920   50.3360 C.3    47  LEU47       0.1596
     42  C        127.1320   16.4070   50.7140 C.2    47  LEU47       0.2287
     43  O        127.1610   17.5180   51.2450 O.2    47  LEU47      -0.2864
     44  CB       129.1680   15.2400   51.5940 C.3    47  LEU47       0.0297
     45  CG       128.5620   14.1470   52.4850 C.3    47  LEU47       0.0022
     46  CD1      129.6560   13.2760   53.0750 C.3    47  LEU47       0.0001
     47  CD2      127.6980   14.7330   53.5950 C.3    47  LEU47       0.0001
     48  N        127.8220    7.7350   56.4000 N.3   126  LEU126     -0.1245
     49  CA       129.0000    8.4720   56.8610 C.3   126  LEU126      0.1561
     50  C        128.6370    9.6300   57.7920 C.2   126  LEU126      0.2260
     51  O        128.6380   10.7960   57.3880 O.2   126  LEU126     -0.2867
     52  CB       129.8220    8.9670   55.6580 C.3   126  LEU126      0.0270
     53  CG       131.2820    9.3890   55.8560 C.3   126  LEU126      0.0019
     54  CD1      132.1780    8.1930   56.2010 C.3   126  LEU126      0.0001
     55  CD2      131.7820   10.1000   54.6060 C.3   126  LEU126      0.0001
     56  N        129.8830   11.8550   60.2760 N.3   128  ILE128     -0.1245
     57  CA       131.0620   12.4560   60.9060 C.3   128  ILE128      0.1561
     58  C        130.8370   13.9550   61.1580 C.2   128  ILE128      0.2260
     59  O        130.3990   14.6890   60.2670 O.2   128  ILE128     -0.2867
     60  CB       132.3790   12.1300   60.1290 C.3   128  ILE128      0.0252
     61  CG1      132.8430   10.7040   60.4730 C.3   128  ILE128      0.0019
     62  CG2      133.4820   13.1540   60.4310 C.3   128  ILE128      0.0019
     63  CD1      134.1360   10.2570   59.8190 C.3   128  ILE128      0.0001
     64  N        133.2850   20.1040   62.9560 N.3   131  LEU131     -0.1245
     65  CA       134.5860   20.7820   62.9350 C.3   131  LEU131      0.1561
     66  C        134.5960   22.1600   63.6080 C.2   131  LEU131      0.2260
     67  O        133.5480   22.6940   63.9830 O.2   131  LEU131     -0.2867
     68  CB       135.0910   20.9010   61.4880 C.3   131  LEU131      0.0270
     69  CG       135.4530   19.5890   60.7790 C.3   131  LEU131      0.0019
     70  CD1      135.3290   19.7210   59.2640 C.3   131  LEU131      0.0001
     71  CD2      136.8500   19.1010   61.1920 C.3   131  LEU131      0.0001
     72  N        133.6630   32.9600   35.5390 N.3   155  SER155     -0.1217
     73  CA       134.7040   31.9840   35.8410 C.3   155  SER155      0.1889
     74  C        134.1730   30.6470   36.3390 C.2   155  SER155      0.2288
     75  O        133.0640   30.5600   36.8670 O.2   155  SER155     -0.2866
     76  CB       135.6560   32.5590   36.8900 C.3   155  SER155      0.2089
     77  OG       136.6890   31.6410   37.1900 O.3   155  SER155     -0.2183
     78  N        135.7260   29.2240   38.7300 N.3   157  SER157     -0.1217
     79  CA       136.1000   29.2900   40.1390 C.3   157  SER157      0.1889
     80  C        135.5630   30.5560   40.7960 C.2   157  SER157      0.2288
     81  O        135.6740   31.6520   40.2410 O.2   157  SER157     -0.2866
     82  CB       137.6220   29.2510   40.3010 C.3   157  SER157      0.2089
     83  OG       138.2080   28.2240   39.5170 O.3   157  SER157     -0.2183
     84  N        137.1830   35.4470   38.6140 N.3   172  ASP172     -0.1225
     85  CA       138.1570   35.9870   37.6550 C.3   172  ASP172      0.1805
     86  C        138.3110   35.0810   36.4310 C.2   172  ASP172      0.2598
     87  O        138.5300   33.8810   36.5760 O.2   172  ASP172     -0.2718
     88  CB       139.5060   36.1770   38.3410 C.3   172  ASP172      0.1424
     89  CG       140.3850   37.1810   37.6300 C.2   172  ASP172      0.3668
     90  OD1      140.6570   38.2470   38.2230 O.co2 172  ASP172     -0.2456
     91  OD2      140.8020   36.9120   36.4800 O.co2 172  ASP172     -0.2456
     92  N        138.2110   35.6570   35.2320 N.am  173  GLY173     -0.1942
     93  CA       138.2500   34.8740   33.9940 C.3   173  GLY173      0.2014
     94  C        138.7170   35.6380   32.7690 C.2   173  GLY173      0.2638
     95  O        139.3070   36.7110   32.8920 O.2   173  GLY173     -0.2714
     96  N        138.4490   35.0730   31.5890 N.am  174  ASP174     -0.1971
     97  CA       138.8610   35.6440   30.3000 C.3   174  ASP174      0.1709
     98  C        138.1920   36.9810   30.0190 C.2   174  ASP174      0.2293
     99  O        138.8540   37.9760   29.7090 O.2   174  ASP174     -0.2864
    100  CB       138.5120   34.6790   29.1680 C.3   174  ASP174      0.1436
    101  CG       139.2860   33.3820   29.2470 C.2   174  ASP174      0.3671
    102  OD1      140.3190   33.3540   29.9510 O.co2 174  ASP174     -0.2456
    103  OD2      138.8670   32.3950   28.6020 O.co2 174  ASP174     -0.2456
    104  N        138.6550   29.0530   47.5640 N.3   206  THR206     -0.1218
    105  CA       138.2960   29.0580   46.1500 C.3   206  THR206      0.1862
    106  C        137.4910   27.7960   45.8350 C.2   206  THR206      0.2287
    107  O        137.9560   26.6810   46.0840 O.2   206  THR206     -0.2866
    108  CB       139.5580   29.0680   45.2660 C.3   206  THR206      0.1770
    109  OG1      140.5810   29.8500   45.8970 O.3   206  THR206     -0.2211
    110  CG2      139.2570   29.6400   43.8870 C.3   206  THR206      0.0375
    111  N        134.6620   25.4290   43.2390 N.3   208  GLY208     -0.1225
    112  CA       134.1280   25.1080   41.9240 C.3   208  GLY208      0.1811
    113  C        132.7320   25.6760   41.7890 C.2   208  GLY208      0.2280
    114  O        131.8490   25.3710   42.5980 O.2   208  GLY208     -0.2866
    115  N        129.6620   23.2800   41.4640 N.3   211  TYR211     -0.1241
    116  CA       129.0680   22.7730   42.6890 C.3   211  TYR211      0.1605
    117  C        128.2090   23.8040   43.4100 C.2   211  TYR211      0.2264
    118  O        127.1560   23.4670   43.9540 O.2   211  TYR211     -0.2867
    119  CB       130.1650   22.2630   43.6110 C.3   211  TYR211      0.0534
    120  CG       131.0170   21.1950   42.9730 C.ar  211  TYR211     -0.0201
    121  CD1      130.5750   19.8750   42.9000 C.ar  211  TYR211     -0.0009
    122  CD2      132.2640   21.5010   42.4320 C.ar  211  TYR211     -0.0009
    123  CE1      131.3550   18.8860   42.3090 C.ar  211  TYR211      0.0417
    124  CE2      133.0520   20.5180   41.8380 C.ar  211  TYR211      0.0417
    125  CZ       132.5910   19.2130   41.7820 C.ar  211  TYR211      0.1957
    126  OH       133.3680   18.2360   41.1960 O.3   211  TYR211     -0.2866
    127  N        141.5810   24.6970   56.4880 N.3   232  GLU232     -0.1231
    128  CA       141.8730   23.3200   56.0970 C.3   232  GLU232      0.1699
    129  C        140.7270   22.3590   56.4200 C.2   232  GLU232      0.2592
    130  O        140.9340   21.3000   57.0150 O.2   232  GLU232     -0.2718
    131  CB       143.1880   22.8470   56.7300 C.3   232  GLU232      0.0402
    132  CG       144.4100   23.0530   55.8430 C.3   232  GLU232      0.1161
    133  CD       145.6200   23.5380   56.6170 C.2   232  GLU232      0.3649
    134  OE1      145.5900   24.6870   57.1060 O.co2 232  GLU232     -0.2457
    135  OE2      146.6060   22.7800   56.7270 O.co2 232  GLU232     -0.2457
    136  N        139.5180   22.7360   56.0160 N.am  233  ALA233     -0.1966
    137  CA       138.3420   21.8800   56.1770 C.3   233  ALA233      0.1713
    138  C        137.3240   22.1400   55.0600 C.2   233  ALA233      0.2458
    139  O        137.3790   23.1830   54.4010 O.2   233  ALA233     -0.2730
    140  CB       137.7130   22.0850   57.5580 C.3   233  ALA233      0.0333
    141  N        136.4060   21.1820   54.8190 N.am  234  PRO234     -0.2727
    142  CA       135.3610   21.4490   53.8410 C.3   234  PRO234      0.1402
    143  C        134.4190   22.5480   54.3070 C.2   234  PRO234      0.2269
    144  O        134.2150   22.7230   55.5080 O.2   234  PRO234     -0.2865
    145  CB       134.6000   20.1200   53.7630 C.3   234  PRO234      0.0296
    146  CG       135.5190   19.1050   54.3280 C.3   234  PRO234      0.0237
    147  CD       136.2850   19.8260   55.3810 C.3   234  PRO234      0.0939
    148  N        128.4650   19.8980   52.0090 N.3   249  PHE249     -0.1227
    149  CA       129.8710   19.9530   52.3770 C.3   249  PHE249      0.1736
    150  C        130.7210   19.9710   51.1140 C.2   249  PHE249      0.2595
    151  O        130.6860   19.0270   50.3290 O.2   249  PHE249     -0.2718
    152  CB       130.2500   18.7600   53.2620 C.3   249  PHE249      0.0547
    153  CG       129.6070   18.7780   54.6290 C.ar  249  PHE249     -0.0202
    154  CD1      128.3880   18.1440   54.8500 C.ar  249  PHE249     -0.0042
    155  CD2      130.2320   19.4130   55.6980 C.ar  249  PHE249     -0.0042
    156  CE1      127.7960   18.1560   56.1100 C.ar  249  PHE249     -0.0003
    157  CE2      129.6480   19.4280   56.9600 C.ar  249  PHE249     -0.0003
    158  CZ       128.4290   18.7980   57.1660 C.ar  249  PHE249     -0.0000
    159  N        131.4840   21.0430   50.9180 N.am  250  LEU250     -0.1966
    160  CA       132.2560   21.2090   49.6900 C.3   250  LEU250      0.1728
    161  C        133.7670   21.2160   49.9140 C.2   250  LEU250      0.2616
    162  O        134.2630   21.8690   50.8290 O.2   250  LEU250     -0.2715
    163  CB       131.8280   22.4890   48.9650 C.3   250  LEU250      0.0311
    164  CG       132.2340   22.5890   47.4900 C.3   250  LEU250      0.0022
    165  CD1      131.7320   21.3780   46.7220 C.3   250  LEU250      0.0001
    166  CD2      131.7240   23.8730   46.8610 C.3   250  LEU250      0.0001
    167  N        134.4940   20.4920   49.0660 N.am  251  ALA251     -0.1964
    168  CA       135.9560   20.5430   49.0710 C.3   251  ALA251      0.1713
    169  C        136.4490   21.7060   48.2040 C.2   251  ALA251      0.2458
    170  O        136.0200   21.8470   47.0580 O.2   251  ALA251     -0.2730
    171  CB       136.5360   19.2240   48.5820 C.3   251  ALA251      0.0333
    172  N        137.3360   22.5570   48.7540 N.am  252  PRO252     -0.2716
    173  CA       137.8740   23.7080   48.0260 C.3   252  PRO252      0.1536
    174  C        139.0180   23.3670   47.0650 C.2   252  PRO252      0.2598
    175  O        139.4570   22.2170   46.9930 O.2   252  PRO252     -0.2715
    176  CB       138.3890   24.6300   49.1460 C.3   252  PRO252      0.0310
    177  CG       138.0730   23.9350   50.4470 C.3   252  PRO252      0.0237
    178  CD       137.8630   22.4970   50.1240 C.3   252  PRO252      0.0939
    179  N        139.4830   24.3780   46.3350 N.am  253  LYS253     -0.1964
    180  CA       140.5850   24.2350   45.3880 C.3   253  LYS253      0.1728
    181  C        141.9150   24.6320   46.0310 C.2   253  LYS253      0.2616
    182  O        142.0830   25.7690   46.4770 O.2   253  LYS253     -0.2715
    183  CB       140.3350   25.0930   44.1410 C.3   253  LYS253      0.0311
    184  CG       139.1040   24.7280   43.3150 C.3   253  LYS253      0.0038
    185  CD       139.1550   25.4230   41.9540 C.3   253  LYS253      0.0206
    186  CE       137.8200   25.3740   41.2170 C.3   253  LYS253      0.1093
    187  NZ       137.5130   24.0490   40.6120 N.3   253  LYS253     -0.1314
    188  N        142.8610   23.6970   46.0630 N.am  254  PHE254     -0.1960
    189  CA       144.1420   23.9120   46.7490 C.3   254  PHE254      0.1771
    190  C        145.3430   24.0430   45.8000 C.2   254  PHE254      0.2619
    191  O        145.2040   23.8680   44.5880 O.2   254  PHE254     -0.2715
    192  CB       144.3920   22.8030   47.7850 C.3   254  PHE254      0.0574
    193  CG       143.4410   22.8350   48.9580 C.ar  254  PHE254     -0.0200
    194  CD1      143.4470   23.9050   49.8510 C.ar  254  PHE254     -0.0042
    195  CD2      142.5470   21.7910   49.1730 C.ar  254  PHE254     -0.0042
    196  CE1      142.5700   23.9370   50.9340 C.ar  254  PHE254     -0.0003
    197  CE2      141.6670   21.8140   50.2540 C.ar  254  PHE254     -0.0003
    198  CZ       141.6800   22.8880   51.1360 C.ar  254  PHE254     -0.0000
    199  N        146.5130   24.3350   46.3780 N.am  255  ASN255     -0.1972
    200  CA       147.7680   24.6140   45.6490 C.3   255  ASN255      0.1688
    201  C        147.7090   25.9010   44.8230 C.2   255  ASN255      0.2292
    202  O        146.9680   26.8310   45.1510 O.2   255  ASN255     -0.2864
    203  CB       148.2080   23.4310   44.7740 C.3   255  ASN255      0.1181
    204  CG       148.3420   22.1400   45.5590 C.2   255  ASN255      0.2629
    205  OD1      149.4040   21.8370   46.1070 O.2   255  ASN255     -0.2716
    206  ND2      147.2660   21.3610   45.6020 N.am  255  ASN255     -0.0877
@<TRIPOS>BOND
     1   103   101   ar
     2   100   101    1
     3   100    97    1
     4   101   102   ar
     5    99    98    2
     6    98    97    1
     7    97    96    1
     8    96    94   am
     9    94    95    2
    10    94    93    1
    11    93    92    1
    12    92    86   am
    13    72    73    1
    14    73    74    1
    15    73    76    1
    16    74    75    2
    17    86    87    2
    18    86    85    1
    19    91    89   ar
    20    76    77    1
    21    89    90   ar
    22    89    88    1
    23    85    88    1
    24    85    84    1
    25    78    79    1
    26    83    82    1
    27    79    82    1
    28    79    80    1
    29    81    80    2
    30   187   186    1
    31   126   125    1
    32    12     9    1
    33    12    13    1
    34   186   185    1
    35   115   116    1
    36     8     9    1
    37     9    10    1
    38   125   124   ar
    39   125   123   ar
    40   113   112    1
    41   113   114    2
    42   124   122   ar
    43   112   111    1
    44   185   184    1
    45   123   121   ar
    46   122   120   ar
    47   116   117    1
    48   116   119    1
    49   121   120   ar
    50   120   119    1
    51    10    11    2
    52    10    14   am
    53   184   183    1
    54   117   118    2
    55   110   108    1
    56    31    29    1
    57   183   180    1
    58    14    15    1
    59   191   190    2
    60   203   204    1
    61   203   200    1
    62   201   202    2
    63   201   200    1
    64    29    30    1
    65    29    26    1
    66   108   109    1
    67   108   105    1
    68    19    18    1
    69    19    20    1
    70   180   181    1
    71   180   179    1
    72   204   206   am
    73   204   205    2
    74    15    18    1
    75    15    16    1
    76   200   199    1
    77    25    16   am
    78    25    26    1
    79   190   199   am
    80   190   189    1
    81   106   107    2
    82   106   105    1
    83     4     3    2
    84    20    21    1
    85   181   188   am
    86   181   182    2
    87   188   189    1
    88    39    37    1
    89    16    17    2
    90   105   104    1
    91    26    27    1
    92    21    22    2
    93   179   174   am
    94     3     2    1
    95    22    23    1
    96    22    24    1
    97    36    37    1
    98    36    33    1
    99    32    27   am
   100    32    33    1
   101   165   164    1
   102   189   192    1
   103   166   164    1
   104   175   174    2
   105   170   169    2
   106    27    28    2
   107   174   173    1
   108    37    38    1
   109    33    34    1
   110   164   163    1
   111    35    34    2
   112   192   193    1
   113     6     5    1
   114     2     5    1
   115     2     1    1
   116   173   172    1
   117   173   176    1
   118   169   172   am
   119   169   168    1
   120    34    40   am
   121     5     7    1
   122   171   168    1
   123   172   178    1
   124   193   195   ar
   125   193   194   ar
   126   163   160    1
   127   167   168    1
   128   167   161   am
   129   176   177    1
   130   195   197   ar
   131    40    41    1
   132   160   161    1
   133   160   159    1
   134   194   196   ar
   135   161   162    2
   136   178   177    1
   137   197   198   ar
   138   151   150    2
   139    41    42    1
   140    41    44    1
   141    42    43    2
   142   159   150   am
   143   196   198   ar
   144   150   149    1
   145    44    45    1
   146   148   149    1
   147   149   152    1
   148    45    46    1
   149    45    47    1
   150   152   153    1
   151   145   142    1
   152   145   146    1
   153   142   143    1
   154   142   141    1
   155   143   144    2
   156   146   147    1
   157   139   138    2
   158    55    53    1
   159   153   154   ar
   160   153   155   ar
   161   141   138   am
   162   141   147    1
   163   154   156   ar
   164   138   137    1
   165    52    53    1
   166    52    49    1
   167   155   157   ar
   168   132   133    1
   169   132   131    1
   170    53    54    1
   171   136   137    1
   172   136   129   am
   173   128   129    1
   174   128   127    1
   175   128   131    1
   176   156   158   ar
   177   137   140    1
   178    48    49    1
   179   129   130    2
   180   133   135   ar
   181   133   134   ar
   182    49    50    1
   183   157   158   ar
   184    51    50    2
   185    70    69    1
   186    63    61    1
   187    60    62    1
   188    60    61    1
   189    60    57    1
   190    59    58    2
   191    56    57    1
   192    69    71    1
   193    69    68    1
   194    57    58    1
   195    68    65    1
   196    65    64    1
   197    65    66    1
   198    66    67    2
