@<TRIPOS>MOLECULE
tmp/2od9A02.pdb
 108 103 0 0 0
SMALL
GASTEIGER

@<TRIPOS>ATOM
      1  N         17.3490   80.5080    7.4270 N.3    36  ALA36      -0.1245
      2  CA        16.1770   81.3600    7.6640 C.3    36  ALA36       0.1562
      3  C         15.9620   82.4810    6.6490 C.2    36  ALA36       0.2260
      4  O         14.8270   82.9060    6.4170 O.2    36  ALA36      -0.2867
      5  CB        16.2420   81.9450    9.0830 C.3    36  ALA36       0.0290
      6  N         11.3660   84.5930   16.1460 N.3    47  PHE47      -0.1227
      7  CA        11.1490   84.5050   17.5970 C.3    47  PHE47       0.1736
      8  C         12.1740   85.3090   18.4280 C.2    47  PHE47       0.2595
      9  O         11.9440   85.5850   19.6070 O.2    47  PHE47      -0.2718
     10  CB        11.1630   83.0290   18.0450 C.3    47  PHE47       0.0547
     11  CG        12.5230   82.3860   18.0070 C.ar   47  PHE47      -0.0202
     12  CD1       13.1300   81.9500   19.1800 C.ar   47  PHE47      -0.0042
     13  CD2       13.2010   82.2120   16.7970 C.ar   47  PHE47      -0.0042
     14  CE1       14.3900   81.3530   19.1530 C.ar   47  PHE47      -0.0003
     15  CE2       14.4590   81.6180   16.7580 C.ar   47  PHE47      -0.0003
     16  CZ        15.0570   81.1870   17.9400 C.ar   47  PHE47      -0.0000
     17  N         13.2920   85.6840   17.8110 N.am   48  ARG48      -0.1980
     18  CA        14.3300   86.4490   18.5060 C.3    48  ARG48       0.1597
     19  C         14.1450   87.9540   18.3000 C.2    48  ARG48       0.2287
     20  O         14.8860   88.7620   18.8640 O.2    48  ARG48      -0.2864
     21  CB        15.7190   86.0650   17.9890 C.3    48  ARG48       0.0334
     22  CG        16.0600   84.5890   18.0870 C.3    48  ARG48       0.0492
     23  CD        17.1730   84.2410   17.0980 C.3    48  ARG48       0.2205
     24  NE        16.7970   84.6340   15.7410 N.pl3  48  ARG48      -0.0865
     25  CZ        17.5450   84.4370   14.6570 C.cat  48  ARG48       0.5346
     26  NH1       18.7280   83.8400   14.7490 N.pl3  48  ARG48       0.1354
     27  NH2       17.1100   84.8510   13.4750 N.pl3  48  ARG48       0.1354
     28  N         16.3240   81.4380   22.5570 N.3    67  GLU67      -0.1245
     29  CA        16.6960   80.0610   22.2850 C.3    67  GLU67       0.1567
     30  C         16.3940   79.0110   23.3400 C.2    67  GLU67       0.2260
     31  O         16.6130   77.8240   23.1060 O.2    67  GLU67      -0.2867
     32  CB        18.1530   80.0050   21.8370 C.3    67  GLU67       0.0388
     33  CG        18.3060   80.5950   20.4290 C.3    67  GLU67       0.1160
     34  CD        19.7220   80.5470   19.8900 C.2    67  GLU67       0.3649
     35  OE1       19.9060   80.8470   18.6870 O.co2  67  GLU67      -0.2457
     36  OE2       20.6490   80.2120   20.6600 O.co2  67  GLU67      -0.2457
     37  N         14.0700   76.2100   22.3800 N.3    70  PHE70      -0.1241
     38  CA        14.6050   75.0260   21.7210 C.3    70  PHE70       0.1605
     39  C         15.6450   74.3570   22.6150 C.2    70  PHE70       0.2264
     40  O         16.6540   73.8500   22.1360 O.2    70  PHE70      -0.2867
     41  CB        15.2560   75.4010   20.3720 C.3    70  PHE70       0.0534
     42  CG        14.2820   75.9340   19.3460 C.ar   70  PHE70      -0.0203
     43  CD1       14.4580   77.2010   18.7930 C.ar   70  PHE70      -0.0042
     44  CD2       13.2010   75.1620   18.9170 C.ar   70  PHE70      -0.0042
     45  CE1       13.5760   77.6910   17.8300 C.ar   70  PHE70      -0.0003
     46  CE2       12.3120   75.6410   17.9530 C.ar   70  PHE70      -0.0003
     47  CZ        12.5010   76.9090   17.4090 C.ar   70  PHE70      -0.0000
     48  N          4.0970   78.7880   14.4240 N.3    89  LEU89      -0.1245
     49  CA         4.9540   78.3590   13.3170 C.3    89  LEU89       0.1561
     50  C          4.6000   77.0430   12.6370 C.2    89  LEU89       0.2260
     51  O          5.3000   76.6280   11.7210 O.2    89  LEU89      -0.2867
     52  CB         6.4130   78.2740   13.7830 C.3    89  LEU89       0.0270
     53  CG         7.0130   79.5780   14.3250 C.3    89  LEU89       0.0019
     54  CD1        8.5130   79.3880   14.5200 C.3    89  LEU89       0.0001
     55  CD2        6.7340   80.7320   13.3510 C.3    89  LEU89       0.0001
     56  N         18.4120   74.3250    7.1450 N.3   118  GLN118     -0.1231
     57  CA        18.4450   74.4620    8.6020 C.3   118  GLN118      0.1698
     58  C         17.0600   74.8390    9.1050 C.2   118  GLN118      0.2592
     59  O         16.8250   74.8500   10.3140 O.2   118  GLN118     -0.2718
     60  CB        19.3520   75.6130    9.0490 C.3   118  GLN118      0.0381
     61  CG        20.7640   75.6040    8.5850 C.3   118  GLN118      0.0905
     62  CD        21.4820   76.8790    9.0170 C.2   118  GLN118      0.2608
     63  OE1       21.4660   77.2470   10.1920 O.2   118  GLN118     -0.2717
     64  NE2       22.0980   77.5570    8.0690 N.am  118  GLN118     -0.0878
     65  N         16.1610   75.1760    8.1830 N.am  119  ASN119     -0.1960
     66  CA        14.8130   75.6110    8.5530 C.3   119  ASN119      0.1819
     67  C         13.8780   74.4790    8.9500 C.2   119  ASN119      0.2621
     68  O         14.0010   73.3550    8.4700 O.2   119  ASN119     -0.2715
     69  CB        14.1570   76.3960    7.4020 C.3   119  ASN119      0.1195
     70  CG        14.9800   77.6070    6.9600 C.2   119  ASN119      0.2630
     71  OD1       15.7870   78.1490    7.7250 O.2   119  ASN119     -0.2716
     72  ND2       14.7550   78.0480    5.7280 N.am  119  ASN119     -0.0877
     73  N         12.9280   74.7990    9.8250 N.am  120  ILE120     -0.1977
     74  CA        11.9540   73.8180   10.2680 C.3   120  ILE120      0.1596
     75  C         10.5730   74.1350    9.7090 C.2   120  ILE120      0.2287
     76  O          9.5840   73.5210   10.1050 O.2   120  ILE120     -0.2864
     77  CB        11.8650   73.7620   11.8090 C.3   120  ILE120      0.0276
     78  CG1       11.5520   75.1550   12.3680 C.3   120  ILE120      0.0022
     79  CG2       13.1650   73.1920   12.3810 C.3   120  ILE120      0.0022
     80  CD1       11.1990   75.1280   13.8580 C.3   120  ILE120      0.0001
     81  N         17.6120   70.1510   10.8110 N.3   138  HIS138     -0.1241
     82  CA        17.1250   70.3770   12.1670 C.3   138  HIS138      0.1621
     83  C         15.7540   69.7890   12.4530 C.2   138  HIS138      0.2264
     84  O         15.0570   70.2380   13.3600 O.2   138  HIS138     -0.2867
     85  CB        17.1490   71.8690   12.4870 C.3   138  HIS138      0.0745
     86  CG        18.5330   72.4460   12.5280 C.ar  138  HIS138      0.0817
     87  ND1       18.7900   73.7880   12.3410 N.ar  138  HIS138     -0.2268
     88  CD2       19.7370   71.8580   12.7370 C.ar  138  HIS138      0.1154
     89  CE1       20.0920   74.0020   12.4300 C.ar  138  HIS138      0.1986
     90  NE2       20.6890   72.8450   12.6690 N.ar  138  HIS138     -0.2212
     91  N         18.7770   72.6330   20.6940 N.3   187  PHE187     -0.1241
     92  CA        20.1820   72.9080   20.9670 C.3   187  PHE187      0.1605
     93  C         20.6320   71.8820   21.9920 C.2   187  PHE187      0.2264
     94  O         19.9440   71.6290   22.9800 O.2   187  PHE187     -0.2867
     95  CB        20.3600   74.3340   21.4990 C.3   187  PHE187      0.0534
     96  CG        20.2710   75.3790   20.4320 C.ar  187  PHE187     -0.0203
     97  CD1       21.3520   75.6180   19.5900 C.ar  187  PHE187     -0.0042
     98  CD2       19.0910   76.0760   20.2220 C.ar  187  PHE187     -0.0042
     99  CE1       21.2600   76.5380   18.5430 C.ar  187  PHE187     -0.0003
    100  CE2       18.9830   76.9970   19.1780 C.ar  187  PHE187     -0.0003
    101  CZ        20.0750   77.2260   18.3350 C.ar  187  PHE187     -0.0000
    102  N         25.3310   78.2110   13.2690 N.3   226  VAL226     -0.1245
    103  CA        24.9070   77.0480   14.0270 C.3   226  VAL226      0.1561
    104  C         25.5910   75.7940   13.5060 C.2   226  VAL226      0.2260
    105  O         25.5190   75.4810   12.3090 O.2   226  VAL226     -0.2867
    106  CB        23.3830   76.8350   13.9510 C.3   226  VAL226      0.0252
    107  CG1       22.9890   75.6710   14.8480 C.3   226  VAL226      0.0019
    108  CG2       22.6540   78.1040   14.3710 C.3   226  VAL226      0.0019
@<TRIPOS>BOND
     1    72    70   am
     2     4     3    2
     3     3     2    1
     4    70    69    1
     5    70    71    2
     6    56    57    1
     7    69    66    1
     8     1     2    1
     9     2     5    1
    10    64    62   am
    11    65    66    1
    12    65    58   am
    13    68    67    2
    14    66    67    1
    15    61    62    1
    16    61    60    1
    17    57    60    1
    18    57    58    1
    19    67    73   am
    20    62    63    2
    21    58    59    2
    22    75    76    2
    23    75    74    1
    24    73    74    1
    25    74    77    1
    26    81    82    1
    27    51    50    2
    28    77    78    1
    29    77    79    1
    30    82    83    1
    31    82    85    1
    32   105   104    2
    33    87    89   ar
    34    87    86   ar
    35    78    80    1
    36    89    90   ar
    37    83    84    2
    38    85    86    1
    39    86    88   ar
    40    50    49    1
    41    90    88   ar
    42   102   103    1
    43    49    52    1
    44    49    48    1
    45    55    53    1
    46    27    25    1
    47   104   103    1
    48    52    53    1
    49   106   103    1
    50   106   108    1
    51   106   107    1
    52    53    54    1
    53    25    26    1
    54    25    24    2
    55    24    23    1
    56     6     7    1
    57    15    13   ar
    58    15    16   ar
    59    13    11   ar
    60    23    22    1
    61    47    45   ar
    62    47    46   ar
    63     7    10    1
    64     7     8    1
    65    17     8   am
    66    17    18    1
    67    45    43   ar
    68    16    14   ar
    69    46    44   ar
    70    21    22    1
    71    21    18    1
    72    11    10    1
    73    11    12   ar
    74    19    18    1
    75    19    20    2
    76   101    99   ar
    77   101   100   ar
    78     8     9    2
    79    99    97   ar
    80    35    34   ar
    81    43    42   ar
    82    44    42   ar
    83    14    12   ar
    84   100    98   ar
    85    42    41    1
    86    97    96   ar
    87    34    33    1
    88    34    36   ar
    89    98    96   ar
    90    41    38    1
    91    33    32    1
    92    96    95    1
    93    91    92    1
    94    92    95    1
    95    92    93    1
    96    38    37    1
    97    38    39    1
    98    32    29    1
    99    93    94    2
   100    40    39    2
   101    29    28    1
   102    29    30    1
   103    31    30    2
