@<TRIPOS>MOLECULE
tmp/2oddB00.pdb
 126 123 0 0 0
SMALL
GASTEIGER

@<TRIPOS>ATOM
      1  N         10.5120   -3.7830    6.4160 N.3    14  SER14      -0.1202
      2  CA        10.5620   -5.0420    7.1550 C.3    14  SER14       0.2020
      3  C          9.1640   -5.5290    7.5370 C.2    14  SER14       0.2619
      4  O          9.0090   -6.6320    8.0620 O.2    14  SER14      -0.2717
      5  CB        11.4160   -4.8810    8.4130 C.3    14  SER14       0.2103
      6  OG        11.0350   -3.7290    9.1460 O.3    14  SER14      -0.2182
      7  N          8.1470   -4.7110    7.2710 N.am   15  GLU15      -0.1965
      8  CA         6.7720   -5.0840    7.5920 C.3    15  GLU15       0.1733
      9  C          5.9860   -5.3590    6.3160 C.2    15  GLU15       0.2617
     10  O          6.3580   -4.9050    5.2350 O.2    15  GLU15      -0.2715
     11  CB         6.0790   -3.9840    8.4070 C.3    15  GLU15       0.0429
     12  CG         6.9920   -3.2760    9.3980 C.3    15  GLU15       0.1163
     13  CD         7.0230   -3.9570   10.7520 C.2    15  GLU15       0.3649
     14  OE1        6.0630   -4.6920   11.0680 O.co2  15  GLU15      -0.2457
     15  OE2        8.0040   -3.7550   11.4970 O.co2  15  GLU15      -0.2457
     16  N          4.9090   -6.1230    6.4480 N.am   16  THR16      -0.1937
     17  CA         4.0830   -6.4820    5.3020 C.3    16  THR16       0.2028
     18  C          2.5990   -6.2660    5.5920 C.2    16  THR16       0.2642
     19  O          2.1160   -6.5600    6.6820 O.2    16  THR16      -0.2714
     20  CB         4.3410   -7.9420    4.9070 C.3    16  THR16       0.1808
     21  OG1        5.6680   -8.1030    4.4380 O.3    16  THR16      -0.2208
     22  CG2        3.4100   -8.4510    3.8250 C.3    16  THR16       0.0379
     23  N          1.8830   -5.7500    4.6020 N.am   17  CYS17      -0.1953
     24  CA         0.4540   -5.5010    4.7450 C.3    17  CYS17       0.1843
     25  C         -0.3070   -6.8230    4.8290 C.2    17  CYS17       0.2626
     26  O         -0.4630   -7.5260    3.8320 O.2    17  CYS17      -0.2714
     27  CB        -0.0490   -4.6710    3.5620 C.3    17  CYS17       0.0997
     28  SG        -1.8330   -4.3890    3.5490 S.3    17  CYS17      -0.0797
     29  N         -0.7690   -7.1580    6.0320 N.am   18  SER18      -0.1936
     30  CA        -1.5030   -8.4000    6.2580 C.3    18  SER18       0.2055
     31  C         -2.8540   -8.4110    5.5410 C.2    18  SER18       0.2643
     32  O         -3.5160   -9.4470    5.4740 O.2    18  SER18      -0.2714
     33  CB        -1.7110   -8.6230    7.7570 C.3    18  SER18       0.2130
     34  OG        -2.7790   -7.8290    8.2470 O.3    18  SER18      -0.2179
     35  N         -3.2600   -7.2640    5.0040 N.am   19  GLY19      -0.1954
     36  CA        -4.5300   -7.1880    4.3030 C.3    19  GLY19       0.1869
     37  C         -4.4650   -7.8190    2.9260 C.2    19  GLY19       0.2309
     38  O         -5.2950   -8.6580    2.5820 O.2    19  GLY19      -0.2863
     39  N         -1.2490   -8.8530    1.7750 N.3    21  ASN21      -0.1240
     40  CA        -0.0460   -9.6770    1.8270 C.3    21  ASN21       0.1653
     41  C          0.8910   -9.3480    0.6670 C.2    21  ASN21       0.2266
     42  O          1.7040  -10.1790    0.2590 O.2    21  ASN21      -0.2867
     43  CB        -0.4180  -11.1620    1.7940 C.3    21  ASN21       0.1155
     44  CG        -0.2480  -11.8300    3.1440 C.2    21  ASN21       0.2627
     45  OD1       -1.2240  -12.2060    3.7910 O.2    21  ASN21      -0.2716
     46  ND2        1.0000  -11.9820    3.5750 N.am   21  ASN21      -0.0877
     47  N          6.1040   -2.1540    4.3490 N.3    25  TYR25      -0.1241
     48  CA         6.4020   -0.8810    4.9960 C.3    25  TYR25       0.1605
     49  C          7.3320   -1.0900    6.1870 C.2    25  TYR25       0.2264
     50  O          7.2900   -2.1300    6.8400 O.2    25  TYR25      -0.2867
     51  CB         5.1100   -0.2000    5.4490 C.3    25  TYR25       0.0534
     52  CG         4.2370    0.2590    4.3040 C.ar   25  TYR25      -0.0201
     53  CD1        4.5140    1.4370    3.6230 C.ar   25  TYR25      -0.0009
     54  CD2        3.1350   -0.4870    3.9010 C.ar   25  TYR25      -0.0009
     55  CE1        3.7200    1.8610    2.5740 C.ar   25  TYR25       0.0417
     56  CE2        2.3360   -0.0710    2.8530 C.ar   25  TYR25       0.0417
     57  CZ         2.6330    1.1030    2.1930 C.ar   25  TYR25       0.1957
     58  OH         1.8400    1.5210    1.1480 O.3    25  TYR25      -0.2866
     59  N          7.5040    1.2580    8.7000 N.3    27  GLY27      -0.1210
     60  CA         6.9070    1.8890    9.8620 C.3    27  GLY27       0.1956
     61  C          5.4300    2.1860    9.6820 C.2    27  GLY27       0.2612
     62  O          4.9670    2.4220    8.5680 O.2    27  GLY27      -0.2717
     63  N          4.6910    2.1670   10.7890 N.am   28  SER28      -0.1952
     64  CA         3.2530    2.4290   10.7650 C.3    28  SER28       0.1924
     65  C          2.9290    3.7030    9.9900 C.2    28  SER28       0.2314
     66  O          1.8750    3.8040    9.3610 O.2    28  SER28      -0.2863
     67  CB         2.7130    2.5390   12.1920 C.3    28  SER28       0.2116
     68  OG         3.6970    3.0550   13.0720 O.3    28  SER28      -0.2180
     69  N          3.0710    3.0630    6.0190 N.3    31  GLN31      -0.1231
     70  CA         1.8890    2.4210    5.4630 C.3    31  GLN31       0.1698
     71  C          0.7520    3.4260    5.2960 C.2    31  GLN31       0.2592
     72  O          0.0060    3.3700    4.3180 O.2    31  GLN31      -0.2718
     73  CB         1.4530    1.2380    6.3320 C.3    31  GLN31       0.0381
     74  CG         0.9050    1.6250    7.6970 C.3    31  GLN31       0.0905
     75  CD        -0.4840    1.0710    7.9420 C.2    31  GLN31       0.2608
     76  OE1       -1.3290    1.7290    8.5460 O.2    31  GLN31      -0.2717
     77  NE2       -0.7240   -0.1500    7.4760 N.am   31  GLN31      -0.0878
     78  N          0.6250    4.3470    6.2480 N.am   32  HIS32      -0.1976
     79  CA        -0.4190    5.3650    6.1980 C.3    32  HIS32       0.1656
     80  C         -0.1520    6.3810    5.0910 C.2    32  HIS32       0.2291
     81  O         -1.0780    6.8490    4.4280 O.2    32  HIS32      -0.2864
     82  CB        -0.5270    6.0790    7.5450 C.3    32  HIS32       0.0771
     83  CG        -1.5310    5.4620    8.4650 C.ar   32  HIS32       0.0820
     84  ND1       -1.9370    6.0490    9.6440 N.ar   32  HIS32      -0.2267
     85  CD2       -2.2140    4.2980    8.3710 C.ar   32  HIS32       0.1154
     86  CE1       -2.8270    5.2710   10.2360 C.ar   32  HIS32       0.1986
     87  NE2       -3.0130    4.2030    9.4830 N.ar   32  HIS32      -0.2212
     88  N         -0.9600    4.7510    2.1090 N.3    35  TRP35      -0.1227
     89  CA        -2.2940    4.1850    2.2970 C.3    35  TRP35       0.1737
     90  C         -3.2970    4.7480    1.2930 C.2    35  TRP35       0.2595
     91  O         -4.0820    4.0000    0.7110 O.2    35  TRP35      -0.2718
     92  CB        -2.7840    4.4400    3.7260 C.3    35  TRP35       0.0564
     93  CG        -4.1390    3.8640    4.0080 C.ar   35  TRP35       0.0003
     94  CD1       -5.1600    4.4690    4.6860 C.ar   35  TRP35       0.0946
     95  CD2       -4.6240    2.5700    3.6260 C.ar   35  TRP35       0.0152
     96  NE1       -6.2480    3.6310    4.7470 N.ar   35  TRP35      -0.2442
     97  CE2       -5.9440    2.4620    4.1020 C.ar   35  TRP35       0.0810
     98  CE3       -4.0720    1.4920    2.9250 C.ar   35  TRP35       0.0012
     99  CZ2       -6.7190    1.3220    3.9010 C.ar   35  TRP35       0.0191
    100  CZ3       -4.8420    0.3620    2.7270 C.ar   35  TRP35       0.0001
    101  CH2       -6.1520    0.2850    3.2110 C.ar   35  TRP35       0.0015
    102  N         -3.2790    6.0650    1.0960 N.am   36  GLU36      -0.1979
    103  CA        -4.2010    6.7120    0.1670 C.3    36  GLU36       0.1602
    104  C         -4.1500    6.0610   -1.2130 C.2    36  GLU36       0.2287
    105  O         -5.1820    5.8610   -1.8540 O.2    36  GLU36      -0.2864
    106  CB        -3.8910    8.2140    0.0660 C.3    36  GLU36       0.0415
    107  CG        -3.2640    8.6400   -1.2550 C.3    36  GLU36       0.1163
    108  CD        -2.8520   10.0990   -1.2620 C.2    36  GLU36       0.3649
    109  OE1       -1.9970   10.4800   -0.4350 O.co2  36  GLU36      -0.2457
    110  OE2       -3.3840   10.8620   -2.0970 O.co2  36  GLU36      -0.2457
    111  N         -4.4230    1.6820   -0.6760 N.3    39  HIS39      -0.1241
    112  CA        -5.7740    1.2270   -0.3650 C.3    39  HIS39       0.1621
    113  C         -6.6060    0.9870   -1.6190 C.2    39  HIS39       0.2264
    114  O         -7.4780    0.1190   -1.6220 O.2    39  HIS39      -0.2867
    115  CB        -6.4860    2.1780    0.6050 C.3    39  HIS39       0.0745
    116  CG        -6.9480    3.4710    0.0140 C.ar   39  HIS39       0.0817
    117  ND1       -7.8340    3.5590   -1.0400 N.ar   39  HIS39      -0.2268
    118  CD2       -6.6670    4.7430    0.3710 C.ar   39  HIS39       0.1154
    119  CE1       -8.0730    4.8320   -1.3010 C.ar   39  HIS39       0.1986
    120  NE2       -7.3780    5.5690   -0.4590 N.ar   39  HIS39      -0.2212
    121  N         -5.1770   -2.6370   -2.2580 N.3    42  CYS42      -0.1235
    122  CA        -5.4020   -3.5380   -1.1270 C.3    42  CYS42       0.1677
    123  C         -6.8100   -4.1260   -1.1220 C.2    42  CYS42       0.2270
    124  O         -7.7640   -3.4970   -1.5810 O.2    42  CYS42      -0.2867
    125  CB        -5.1560   -2.7950    0.1860 C.3    42  CYS42       0.0956
    126  SG        -4.7960   -3.8740    1.5890 S.3    42  CYS42      -0.0801
@<TRIPOS>BOND
     1   121   122    1
     2   110   108   ar
     3   105   104    2
     4   114   113    2
     5   113   112    1
     6   124   123    2
     7   119   117   ar
     8   119   120   ar
     9   108   107    1
    10   108   109   ar
    11   107   106    1
    12   104   103    1
    13   122   123    1
    14   122   125    1
    15   117   116   ar
    16   111   112    1
    17   120   118   ar
    18   112   115    1
    19   116   118   ar
    20   116   115    1
    21   106   103    1
    22   103   102    1
    23   125   126    1
    24    42    41    2
    25    41    40    1
    26    91    90    2
    27   102    90   am
    28    58    57    1
    29    90    89    1
    30    39    40    1
    31    43    40    1
    32    43    44    1
    33    88    89    1
    34    57    55   ar
    35    57    56   ar
    36    89    92    1
    37    55    53   ar
    38    38    37    2
    39   100    98   ar
    40   100   101   ar
    41    56    54   ar
    42    98    95   ar
    43    37    36    1
    44    44    46   am
    45    44    45    2
    46   101    99   ar
    47    28    27    1
    48    27    24    1
    49    53    52   ar
    50    95    93   ar
    51    95    97   ar
    52    92    93    1
    53    22    20    1
    54    26    25    2
    55    99    97   ar
    56    54    52   ar
    57    93    94   ar
    58    97    96   ar
    59    36    35    1
    60    52    51    1
    61    72    71    2
    62    47    48    1
    63    81    80    2
    64    21    20    1
    65    23    24    1
    66    23    18   am
    67    94    96   ar
    68    24    25    1
    69    25    29   am
    70    20    17    1
    71    48    51    1
    72    48    49    1
    73    35    31   am
    74    80    79    1
    75    10     9    2
    76    71    70    1
    77    71    78   am
    78    17    18    1
    79    17    16    1
    80    70    69    1
    81    70    73    1
    82    32    31    2
    83    31    30    1
    84    18    19    2
    85    29    30    1
    86    49    50    2
    87    79    78    1
    88    79    82    1
    89    30    33    1
    90     9    16   am
    91     9     8    1
    92    73    74    1
    93     1     2    1
    94     2     3    1
    95     2     5    1
    96     7     3   am
    97     7     8    1
    98    77    75   am
    99     3     4    2
   100    82    83    1
   101     8    11    1
   102    74    75    1
   103    33    34    1
   104    75    76    2
   105    85    83   ar
   106    85    87   ar
   107    11    12    1
   108     5     6    1
   109    83    84   ar
   110    62    61    2
   111    59    60    1
   112    66    65    2
   113    12    13    1
   114    87    86   ar
   115    84    86   ar
   116    61    60    1
   117    61    63   am
   118    65    64    1
   119    13    14   ar
   120    13    15   ar
   121    64    63    1
   122    64    67    1
   123    67    68    1
