@<TRIPOS>MOLECULE
tmp/2odhA00.pdb
 94 87 0 0 0
SMALL
GASTEIGER

@<TRIPOS>ATOM
      1  N         -6.1060   18.5220   47.6950 N.3    66  ASN66      -0.1240
      2  CA        -6.6910   17.5730   46.7770 C.3    66  ASN66       0.1653
      3  C         -7.8260   18.2650   46.0050 C.2    66  ASN66       0.2266
      4  O         -8.7260   18.8240   46.6160 O.2    66  ASN66      -0.2867
      5  CB        -7.2270   16.3830   47.5630 C.3    66  ASN66       0.1155
      6  CG        -7.3190   15.1180   46.7310 C.2    66  ASN66       0.2627
      7  OD1       -7.2910   14.0110   47.2850 O.2    66  ASN66      -0.2716
      8  ND2       -7.4230   15.2590   45.4120 N.am   66  ASN66      -0.0877
      9  N          4.9460   13.3870   48.5640 N.3   153  LEU153     -0.1245
     10  CA         3.9200   14.3310   48.2090 C.3   153  LEU153      0.1561
     11  C          2.6170   13.9440   48.9090 C.2   153  LEU153      0.2260
     12  O          2.1750   12.8250   48.7910 O.2   153  LEU153     -0.2867
     13  CB         3.7350   14.3350   46.6800 C.3   153  LEU153      0.0270
     14  CG         2.5930   15.1760   46.1430 C.3   153  LEU153      0.0019
     15  CD1        2.8110   16.6060   46.4920 C.3   153  LEU153      0.0001
     16  CD2        2.4860   14.9950   44.6110 C.3   153  LEU153      0.0001
     17  N         -1.3770   14.8900   50.0590 N.3   155  PHE155     -0.1241
     18  CA        -2.5880   15.6150   49.6800 C.3   155  PHE155      0.1605
     19  C         -3.5650   15.7820   50.8260 C.2   155  PHE155      0.2264
     20  O         -3.8090   14.8320   51.5700 O.2   155  PHE155     -0.2867
     21  CB        -3.3050   14.9170   48.5340 C.3   155  PHE155      0.0534
     22  CG        -2.5630   14.9440   47.2340 C.ar  155  PHE155     -0.0203
     23  CD1       -2.7440   15.9900   46.3580 C.ar  155  PHE155     -0.0042
     24  CD2       -1.6990   13.9270   46.9060 C.ar  155  PHE155     -0.0042
     25  CE1       -2.0540   16.0220   45.1610 C.ar  155  PHE155     -0.0003
     26  CE2       -1.0010   13.9560   45.6950 C.ar  155  PHE155     -0.0003
     27  CZ        -1.1990   15.0010   44.8350 C.ar  155  PHE155     -0.0000
     28  N         -3.9490   11.2610   51.6810 N.3   173  LYS173     -0.1245
     29  CA        -3.2590   10.4110   50.7170 C.3   173  LYS173      0.1561
     30  C         -1.8540   10.9280   50.5570 C.2   173  LYS173      0.2260
     31  O         -1.5960   12.1220   50.7080 O.2   173  LYS173     -0.2867
     32  CB        -3.9290   10.3180   49.3440 C.3   173  LYS173      0.0271
     33  CG        -4.2750   11.5470   48.6410 C.3   173  LYS173      0.0035
     34  CD        -5.2460   11.1880   47.4790 C.3   173  LYS173      0.0206
     35  CE        -5.0050   11.9900   46.2170 C.3   173  LYS173      0.1093
     36  NZ        -6.1610   11.8740   45.2770 N.3   173  LYS173     -0.1314
     37  N          2.1440    9.9310   48.4620 N.3   175  TYR175     -0.1241
     38  CA         2.9120    9.1640   47.4870 C.3   175  TYR175      0.1605
     39  C          4.4050    9.4360   47.6320 C.2   175  TYR175      0.2264
     40  O          4.8090   10.5410   48.0160 O.2   175  TYR175     -0.2867
     41  CB         2.5030    9.5340   46.0550 C.3   175  TYR175      0.0534
     42  CG         1.0480    9.3300   45.7500 C.ar  175  TYR175     -0.0201
     43  CD1        0.6200    8.1880   45.0890 C.ar  175  TYR175     -0.0009
     44  CD2        0.1120   10.2620   46.1510 C.ar  175  TYR175     -0.0009
     45  CE1       -0.7180    7.9840   44.8300 C.ar  175  TYR175      0.0417
     46  CE2       -1.2370   10.0650   45.9080 C.ar  175  TYR175      0.0417
     47  CZ        -1.6390    8.9290   45.2660 C.ar  175  TYR175      0.1957
     48  OH        -2.9950    8.7650   45.0140 O.3   175  TYR175     -0.2866
     49  N          7.6200    9.5550   45.1890 N.3   177  LEU177     -0.1245
     50  CA         7.9640    9.6890   43.7720 C.3   177  LEU177      0.1561
     51  C          9.4660    9.6990   43.6270 C.2   177  LEU177      0.2260
     52  O         10.1270   10.5180   44.2300 O.2   177  LEU177     -0.2867
     53  CB         7.3520   10.9760   43.2160 C.3   177  LEU177      0.0270
     54  CG         5.8160   11.0030   43.2960 C.3   177  LEU177      0.0019
     55  CD1        5.3190   11.6640   44.5690 C.3   177  LEU177      0.0001
     56  CD2        5.2230   11.6890   42.0590 C.3   177  LEU177      0.0001
     57  N         -0.1130   18.1270   38.1110 N.3   219  ILE219     -0.1231
     58  CA        -0.1750   16.8930   38.8790 C.3   219  ILE219      0.1692
     59  C         -0.5070   15.6980   37.9790 C.2   219  ILE219      0.2592
     60  O          0.0250   14.6060   38.1780 O.2   219  ILE219     -0.2718
     61  CB        -1.2200   17.0570   40.0340 C.3   219  ILE219      0.0266
     62  CG1       -0.6950   18.0650   41.0610 C.3   219  ILE219      0.0019
     63  CG2       -1.6010   15.7050   40.6700 C.3   219  ILE219      0.0020
     64  CD1        0.5110   17.6410   41.8410 C.3   219  ILE219      0.0001
     65  N         -1.3790   15.9110   36.9840 N.am  220  SER220     -0.1952
     66  CA        -1.7560   14.8560   36.0490 C.3   220  SER220      0.1924
     67  C         -0.6200   14.3210   35.1910 C.2   220  SER220      0.2314
     68  O         -0.7720   13.2680   34.5530 O.2   220  SER220     -0.2863
     69  CB        -2.8920   15.3370   35.1150 C.3   220  SER220      0.2116
     70  OG        -2.5070   16.4630   34.3460 O.3   220  SER220     -0.2180
     71  N          2.6370   13.9390   36.4160 N.3   222  LEU222     -0.1231
     72  CA         3.7570   13.5160   37.2450 C.3   222  LEU222      0.1693
     73  C          4.3970   12.2220   36.7700 C.2   222  LEU222      0.2592
     74  O          5.5930   12.0390   36.9660 O.2   222  LEU222     -0.2718
     75  CB         3.3400   13.3920   38.7240 C.3   222  LEU222      0.0284
     76  CG         3.2020   14.7450   39.4160 C.3   222  LEU222      0.0019
     77  CD1        2.5160   14.5470   40.7790 C.3   222  LEU222      0.0001
     78  CD2        4.5450   15.4060   39.6070 C.3   222  LEU222      0.0001
     79  N          3.6270   11.3410   36.1250 N.am  223  ASP223     -0.1974
     80  CA         4.1750   10.0750   35.6380 C.3   223  ASP223      0.1709
     81  C          5.1110   10.2680   34.4410 C.2   223  ASP223      0.2293
     82  O          5.8200    9.3400   34.0550 O.2   223  ASP223     -0.2864
     83  CB         3.0890    9.0210   35.3300 C.3   223  ASP223      0.1436
     84  CG         2.0490    9.4830   34.3300 C.2   223  ASP223      0.3671
     85  OD1        2.1590   10.5830   33.7500 O.co2 223  ASP223     -0.2456
     86  OD2        1.0550    8.7750   34.0550 O.co2 223  ASP223     -0.2456
     87  N          6.1640    5.8040   41.1470 N.3   229  ILE229     -0.1245
     88  CA         5.2130    6.5220   41.9760 C.3   229  ILE229      0.1561
     89  C          4.4790    5.4790   42.8160 C.2   229  ILE229      0.2260
     90  O          3.7440    4.6360   42.2820 O.2   229  ILE229     -0.2867
     91  CB         4.2350    7.3740   41.1260 C.3   229  ILE229      0.0252
     92  CG1        5.0120    8.4160   40.3070 C.3   229  ILE229      0.0019
     93  CG2        3.1650    8.0340   42.0150 C.3   229  ILE229      0.0019
     94  CD1        4.1430    9.2760   39.4220 C.3   229  ILE229      0.0001
@<TRIPOS>BOND
     1    85    84   ar
     2    82    81    2
     3    86    84   ar
     4    84    83    1
     5    70    69    1
     6    81    80    1
     7    68    67    2
     8    69    66    1
     9    67    66    1
    10    83    80    1
    11    80    79    1
    12    66    65    1
    13    79    73   am
    14    71    72    1
    15    73    74    2
    16    73    72    1
    17    65    59   am
    18    72    75    1
    19    59    60    2
    20    59    58    1
    21    57    58    1
    22    75    76    1
    23    58    61    1
    24    76    78    1
    25    76    77    1
    26    94    92    1
    27    61    63    1
    28    61    62    1
    29    92    91    1
    30    62    64    1
    31    91    88    1
    32    91    93    1
    33    87    88    1
    34    88    89    1
    35    56    54    1
    36    90    89    2
    37    53    54    1
    38    53    50    1
    39    54    55    1
    40    51    50    1
    41    51    52    2
    42    50    49    1
    43    16    14    1
    44    45    43   ar
    45    45    47   ar
    46    27    25   ar
    47    27    26   ar
    48    48    47    1
    49    43    42   ar
    50    25    23   ar
    51    47    46   ar
    52    36    35    1
    53     8     6   am
    54    26    24   ar
    55    42    41    1
    56    42    44   ar
    57    46    44   ar
    58     3     4    2
    59     3     2    1
    60    41    38    1
    61    14    15    1
    62    14    13    1
    63    35    34    1
    64    23    22   ar
    65    13    10    1
    66     6     7    2
    67     6     5    1
    68     2     5    1
    69     2     1    1
    70    24    22   ar
    71    22    21    1
    72    34    33    1
    73    38    39    1
    74    38    37    1
    75    39    40    2
    76    10     9    1
    77    10    11    1
    78    21    18    1
    79    33    32    1
    80    12    11    2
    81    32    29    1
    82    18    17    1
    83    18    19    1
    84    30    31    2
    85    30    29    1
    86    29    28    1
    87    19    20    2
