@<TRIPOS>MOLECULE
tmp/2odqA01.pdb
 147 138 0 0 0
SMALL
GASTEIGER

@<TRIPOS>ATOM
      1  N         16.0540   21.4160    5.9500 N.3     1  LYS1       -0.1245
      2  CA        16.2180   22.8140    6.4480 C.3     1  LYS1        0.1561
      3  C         17.7200   23.2720    6.4470 C.2     1  LYS1        0.2260
      4  O         18.6410   22.4700    6.4360 O.2     1  LYS1       -0.2867
      5  CB        15.5630   22.9740    7.8340 C.3     1  LYS1        0.0271
      6  CG        14.0780   22.8400    7.7670 C.3     1  LYS1        0.0035
      7  CD        13.3510   23.2400    9.0220 C.3     1  LYS1        0.0206
      8  CE        13.0010   24.7860    9.1700 C.3     1  LYS1        0.1093
      9  NZ        12.5250   25.1180   10.5570 N.3     1  LYS1       -0.1314
     10  N         20.1080   37.8730    6.5530 N.3    40  ARG40      -0.1245
     11  CA        19.5120   36.9840    7.5720 C.3    40  ARG40       0.1563
     12  C         20.4980   35.8780    7.9870 C.2    40  ARG40       0.2260
     13  O         20.7640   35.6190    9.1790 O.2    40  ARG40      -0.2867
     14  CB        18.1580   36.4540    7.0470 C.3    40  ARG40       0.0307
     15  CG        17.3710   35.6730    8.0680 C.3    40  ARG40       0.0489
     16  CD        17.2200   36.5710    9.3270 C.3    40  ARG40       0.2205
     17  NE        16.3460   35.9350   10.2930 N.pl3  40  ARG40      -0.0865
     18  CZ        16.4530   35.9970   11.6160 C.cat  40  ARG40       0.5346
     19  NH1       17.4790   36.6440   12.1440 N.pl3  40  ARG40       0.1354
     20  NH2       15.5610   35.3330   12.3910 N.pl3  40  ARG40       0.1354
     21  N         22.9840   35.5010   12.8420 N.3    44  PHE44      -0.1241
     22  CA        23.0980   34.5230   13.8820 C.3    44  PHE44       0.1605
     23  C         24.5330   34.2490   14.3960 C.2    44  PHE44       0.2264
     24  O         24.6900   33.4970   15.3340 O.2    44  PHE44      -0.2867
     25  CB        22.4780   33.1870   13.4240 C.3    44  PHE44       0.0534
     26  CG        21.0150   33.2530   13.1020 C.ar   44  PHE44      -0.0203
     27  CD1       20.0720   33.1470   14.1030 C.ar   44  PHE44      -0.0042
     28  CD2       20.5860   33.3540   11.7870 C.ar   44  PHE44      -0.0042
     29  CE1       18.7290   33.1680   13.8080 C.ar   44  PHE44      -0.0003
     30  CE2       19.2740   33.3410   11.4590 C.ar   44  PHE44      -0.0003
     31  CZ        18.3250   33.2480   12.4710 C.ar   44  PHE44      -0.0000
     32  N         11.0040   14.5370    4.0580 N.3   188  ASP188     -0.1225
     33  CA         9.7620   14.3020    4.7910 C.3   188  ASP188      0.1805
     34  C          9.4450   15.4500    5.7190 C.2   188  ASP188      0.2598
     35  O         10.2340   15.7590    6.5750 O.2   188  ASP188     -0.2718
     36  CB         9.9490   13.0650    5.6990 C.3   188  ASP188      0.1424
     37  CG         9.7860   11.7560    4.9560 C.2   188  ASP188      0.3668
     38  OD1        9.4220   11.8160    3.7400 O.co2 188  ASP188     -0.2456
     39  OD2       10.0090   10.6970    5.6140 O.co2 188  ASP188     -0.2456
     40  N          8.2830   16.0470    5.5790 N.am  189  GLY189     -0.1957
     41  CA         7.8790   17.0480    6.5450 C.3   189  GLY189      0.1869
     42  C          8.1920   18.5040    6.2010 C.2   189  GLY189      0.2309
     43  O          7.8740   19.4080    6.9950 O.2   189  GLY189     -0.2863
     44  N         12.2650   32.3110    6.8300 N.3   207  GLU207     -0.1231
     45  CA        12.2310   32.0590    8.2980 C.3   207  GLU207      0.1699
     46  C         11.9550   30.6260    8.6080 C.2   207  GLU207      0.2592
     47  O         12.4740   30.1210    9.5520 O.2   207  GLU207     -0.2718
     48  CB        11.2000   32.9480    9.0830 C.3   207  GLU207      0.0402
     49  CG        11.5870   34.3950    9.2720 C.3   207  GLU207      0.1161
     50  CD        12.9150   34.5530    9.9100 C.2   207  GLU207      0.3649
     51  OE1       13.0220   34.4350   11.1880 O.co2 207  GLU207     -0.2457
     52  OE2       13.8640   34.8430    9.1290 O.co2 207  GLU207     -0.2457
     53  N         11.1330   29.9880    7.7930 N.am  208  HIS208     -0.1976
     54  CA        10.7640   28.5910    7.9860 C.3   208  HIS208      0.1656
     55  C         11.7060   27.6730    7.2860 C.2   208  HIS208      0.2291
     56  O         11.6540   26.4960    7.5370 O.2   208  HIS208     -0.2864
     57  CB         9.3070   28.3250    7.4900 C.3   208  HIS208      0.0771
     58  CG         8.2560   29.0760    8.2840 C.ar  208  HIS208      0.0820
     59  ND1        7.6100   28.5100    9.3610 N.ar  208  HIS208     -0.2267
     60  CD2        7.8100   30.3630    8.2070 C.ar  208  HIS208      0.1154
     61  CE1        6.7950   29.4070    9.9040 C.ar  208  HIS208      0.1986
     62  NE2        6.8910   30.5350    9.2210 N.ar  208  HIS208     -0.2212
     63  N         14.8830   28.0970    7.7250 N.3   210  LEU210     -0.1231
     64  CA        15.8860   27.9850    8.7800 C.3   210  LEU210      0.1693
     65  C         15.4860   27.1260    9.9590 C.2   210  LEU210      0.2592
     66  O         14.3840   27.2550   10.4360 O.2   210  LEU210     -0.2718
     67  CB        16.3210   29.3410    9.2710 C.3   210  LEU210      0.0284
     68  CG        16.7920   30.3630    8.2530 C.3   210  LEU210      0.0019
     69  CD1       16.8790   31.7860    8.9770 C.3   210  LEU210      0.0001
     70  CD2       18.1240   29.9930    7.6710 C.3   210  LEU210      0.0001
     71  N         16.4470   26.3260   10.4470 N.am  211  ASP211     -0.1960
     72  CA        16.3460   25.5070   11.6420 C.3   211  ASP211      0.1840
     73  C         17.3170   25.9890   12.7180 C.2   211  ASP211      0.2622
     74  O         18.5160   25.6690   12.7100 O.2   211  ASP211     -0.2715
     75  CB        16.5760   24.0380   11.3050 C.3   211  ASP211      0.1450
     76  CG        16.3260   23.0900   12.5010 C.2   211  ASP211      0.3671
     77  OD1       16.1070   23.5330   13.6200 O.co2 211  ASP211     -0.2456
     78  OD2       16.4590   21.8800   12.3640 O.co2 211  ASP211     -0.2456
     79  N         16.7560   26.7310   13.6970 N.am  212  VAL212     -0.1963
     80  CA        17.5100   27.4080   14.7380 C.3   212  VAL212      0.1727
     81  C         17.3670   26.6610   16.1100 C.2   212  VAL212      0.2617
     82  O         17.7960   27.1460   17.1680 O.2   212  VAL212     -0.2715
     83  CB        17.0470   28.9170   14.7550 C.3   212  VAL212      0.0290
     84  CG1       17.9250   29.6640   15.5340 C.3   212  VAL212      0.0023
     85  CG2       17.1200   29.5300   13.3660 C.3   212  VAL212      0.0023
     86  N         16.7920   25.4470   16.0690 N.am  213  SER213     -0.1936
     87  CA        16.3360   24.7210   17.2640 C.3   213  SER213      0.2055
     88  C         17.4620   24.2810   18.1410 C.2   213  SER213      0.2642
     89  O         17.2540   24.0770   19.3570 O.2   213  SER213     -0.2714
     90  CB        15.4210   23.5240   16.9030 C.3   213  SER213      0.2130
     91  OG        16.1050   22.4870   16.1540 O.3   213  SER213     -0.2179
     92  N         18.6560   24.1660   17.5660 N.am  214  LYS214     -0.1977
     93  CA        19.8260   23.6730   18.3220 C.3   214  LYS214      0.1596
     94  C         20.7470   24.7900   18.6240 C.2   214  LYS214      0.2287
     95  O         21.8070   24.6060   19.1890 O.2   214  LYS214     -0.2864
     96  CB        20.5560   22.4940   17.6110 C.3   214  LYS214      0.0298
     97  CG        19.6070   21.3000   17.3870 C.3   214  LYS214      0.0038
     98  CD        20.3160   19.9510   17.0530 C.3   214  LYS214      0.0206
     99  CE        19.2420   18.8130   16.9580 C.3   214  LYS214      0.1093
    100  NZ        17.9030   19.2900   17.5790 N.3   214  LYS214     -0.1314
    101  N         15.5590   36.2340   17.2750 N.3   223  GLY223     -0.1210
    102  CA        14.1040   36.0680   17.3050 C.3   223  GLY223      0.1956
    103  C         13.6350   35.5450   15.9790 C.2   223  GLY223      0.2611
    104  O         14.4220   35.4080   14.9930 O.2   223  GLY223     -0.2717
    105  N         12.3480   35.2210   15.9780 N.am  224  ASN224     -0.1974
    106  CA        11.6330   34.8070   14.7970 C.3   224  ASN224      0.1688
    107  C         10.9050   35.9860   14.1460 C.2   224  ASN224      0.2292
    108  O         10.1680   36.7480   14.8120 O.2   224  ASN224     -0.2864
    109  CB        10.6540   33.6410   15.1360 C.3   224  ASN224      0.1181
    110  CG        10.3970   32.7370   13.9370 C.2   224  ASN224      0.2629
    111  OD1        9.9940   33.2060   12.8810 O.2   224  ASN224     -0.2716
    112  ND2       10.6500   31.4660   14.1010 N.am  224  ASN224     -0.0877
    113  N          9.0290   35.4260   11.4910 N.3   226  SER226     -0.1217
    114  CA         7.7990   34.9360   10.8210 C.3   226  SER226      0.1889
    115  C          6.4540   35.4520   11.4710 C.2   226  SER226      0.2288
    116  O          6.2770   35.3050   12.6580 O.2   226  SER226     -0.2866
    117  CB         7.7760   33.3990   10.8540 C.3   226  SER226      0.2089
    118  OG         6.8260   32.9720    9.9310 O.3   226  SER226     -0.2183
    119  N          3.9000   33.8190   11.3700 N.3   228  ASN228     -0.1225
    120  CA         3.2600   32.5560   11.6280 C.3   228  ASN228      0.1785
    121  C          3.9630   31.8220   12.7660 C.2   228  ASN228      0.2597
    122  O          3.4720   30.7920   13.2280 O.2   228  ASN228     -0.2718
    123  CB         3.2720   31.7210   10.3250 C.3   228  ASN228      0.1169
    124  CG         2.1880   32.1570    9.2670 C.2   228  ASN228      0.2627
    125  OD1        1.1060   32.6760    9.5970 O.2   228  ASN228     -0.2716
    126  ND2        2.4830   31.8950    7.9800 N.am  228  ASN228     -0.0877
    127  N          5.0950   32.3440   13.2520 N.am  229  ALA229     -0.1979
    128  CA         5.7410   31.8400   14.4520 C.3   229  ALA229      0.1597
    129  C          4.9000   32.2290   15.7010 C.2   229  ALA229      0.2287
    130  O          4.0490   33.1240   15.6270 O.2   229  ALA229     -0.2864
    131  CB         7.1840   32.4310   14.5710 C.3   229  ALA229      0.0319
    132  N          8.3670   33.0420   20.2850 N.3   233  GLU233     -0.1245
    133  CA         9.3700   32.7660   19.2860 C.3   233  GLU233      0.1567
    134  C          9.8540   34.1070   18.6820 C.2   233  GLU233      0.2260
    135  O         10.9900   34.2510   18.3710 O.2   233  GLU233     -0.2867
    136  CB         8.7140   31.9250   18.1810 C.3   233  GLU233      0.0388
    137  CG         8.7940   30.4430   18.5850 C.3   233  GLU233      0.1160
    138  CD         8.0710   29.5070   17.6100 C.2   233  GLU233      0.3649
    139  OE1        7.1360   29.9000   16.8730 O.co2 233  GLU233     -0.2457
    140  OE2        8.5420   28.3740   17.5100 O.co2 233  GLU233     -0.2457
    141  N         14.5970   28.7100   21.3420 N.3   322  THR322     -0.1218
    142  CA        13.7550   29.4590   20.4790 C.3   322  THR322      0.1862
    143  C         12.7140   30.2460   21.2410 C.2   322  THR322      0.2287
    144  O         12.0910   31.1310   20.7020 O.2   322  THR322     -0.2866
    145  CB        13.0180   28.4900   19.5100 C.3   322  THR322      0.1770
    146  OG1       12.3300   27.4940   20.2680 O.3   322  THR322     -0.2211
    147  CG2       14.0440   27.7590   18.6010 C.3   322  THR322      0.0375
@<TRIPOS>BOND
     1    38    37   ar
     2    32    33    1
     3    33    36    1
     4    33    34    1
     5    37    39   ar
     6    37    36    1
     7    40    34   am
     8    40    41    1
     9    34    35    2
    10     1     2    1
    11    42    41    1
    12    42    43    2
    13     4     3    2
    14     3     2    1
    15     2     5    1
    16    10    11    1
    17    44    45    1
    18    14    11    1
    19    14    15    1
    20    55    56    2
    21    55    54    1
    22    57    54    1
    23    57    58    1
    24    11    12    1
    25    70    68    1
    26    63    64    1
    27     6     5    1
    28     6     7    1
    29    53    54    1
    30    53    46   am
    31   126   124   am
    32    12    13    2
    33    15    16    1
    34    60    58   ar
    35    60    62   ar
    36    68    69    1
    37    68    67    1
    38    58    59   ar
    39    45    46    1
    40    45    48    1
    41    46    47    2
    42    64    67    1
    43    64    65    1
    44     7     8    1
    45    48    49    1
    46    52    50   ar
    47     8     9    1
    48    62    61   ar
    49   124   125    2
    50   124   123    1
    51    49    50    1
    52    16    17    1
    53    59    61   ar
    54    50    51   ar
    55   118   117    1
    56    65    66    2
    57    65    71   am
    58    17    18    2
    59   123   120    1
    60    71    72    1
    61   114   117    1
    62   114   115    1
    63   114   113    1
    64    75    72    1
    65    75    76    1
    66   119   120    1
    67    30    28   ar
    68    30    31   ar
    69   115   116    2
    70    18    19    1
    71    18    20    1
    72   120   121    1
    73    72    73    1
    74    28    26   ar
    75    78    76   ar
    76    31    29   ar
    77    76    77   ar
    78    74    73    2
    79    73    79   am
    80   121   122    2
    81   121   127   am
    82    21    22    1
    83   111   110    2
    84    26    25    1
    85    26    27   ar
    86   127   128    1
    87    85    83    1
    88    25    22    1
    89    79    80    1
    90    29    27   ar
    91    22    23    1
    92   110   112   am
    93   110   109    1
    94   107   106    1
    95   107   108    2
    96    23    24    2
    97   128   131    1
    98   128   129    1
    99    80    83    1
   100    80    81    1
   101    83    84    1
   102   106   109    1
   103   106   105    1
   104   104   103    2
   105   130   129    2
   106   105   103   am
   107   103   102    1
   108    86    81   am
   109    86    87    1
   110    81    82    2
   111    91    90    1
   112   139   138   ar
   113    90    87    1
   114    99    98    1
   115    99   100    1
   116    98    97    1
   117    87    88    1
   118   101   102    1
   119    97    96    1
   120   140   138   ar
   121    92    88   am
   122    92    93    1
   123   138   137    1
   124    96    93    1
   125    88    89    2
   126   136   137    1
   127   136   133    1
   128    93    94    1
   129   135   134    2
   130   147   145    1
   131    94    95    2
   132   134   133    1
   133   133   132    1
   134   145   146    1
   135   145   142    1
   136   142   143    1
   137   142   141    1
   138   144   143    2
