@<TRIPOS>MOLECULE
tmp/2oemA00.pdb
 132 128 0 0 0
SMALL
GASTEIGER

@<TRIPOS>ATOM
      1  N        -17.8350  -31.6500  -35.8160 N.3   144  ILE144     -0.1245
      2  CA       -17.2250  -32.0320  -34.5550 C.3   144  ILE144      0.1561
      3  C        -18.3070  -32.3880  -33.5420 C.2   144  ILE144      0.2260
      4  O        -19.3030  -31.6740  -33.4070 O.2   144  ILE144     -0.2867
      5  CB       -16.3880  -30.8680  -33.9780 C.3   144  ILE144      0.0252
      6  CG1      -15.3950  -30.3640  -35.0260 C.3   144  ILE144      0.0019
      7  CG2      -15.6710  -31.3210  -32.7140 C.3   144  ILE144      0.0019
      8  CD1      -14.7260  -29.0410  -34.6460 C.3   144  ILE144      0.0001
      9  N        -20.2290  -32.5100  -30.2420 N.3   146  LYS146     -0.1245
     10  CA       -20.2880  -31.4970  -29.1990 C.3   146  LYS146      0.1561
     11  C        -21.1040  -31.9700  -28.0040 C.2   146  LYS146      0.2260
     12  O        -22.1250  -32.6420  -28.1600 O.2   146  LYS146     -0.2867
     13  CB       -20.8380  -30.1820  -29.7600 C.3   146  LYS146      0.0271
     14  CG       -19.8590  -29.4620  -30.6870 C.3   146  LYS146      0.0035
     15  CD       -18.5620  -29.1020  -29.9570 C.3   146  LYS146      0.0206
     16  CE       -17.5590  -28.4170  -30.8750 C.3   146  LYS146      0.1093
     17  NZ       -16.3090  -28.0290  -30.1560 N.3   146  LYS146     -0.1314
     18  N        -14.3790  -34.5780  -30.1940 N.3   173  ASP173     -0.1225
     19  CA       -13.8480  -33.2750  -29.7960 C.3   173  ASP173      0.1805
     20  C        -12.4970  -33.6950  -29.2100 C.2   173  ASP173      0.2597
     21  O        -12.3920  -34.7870  -28.6470 O.2   173  ASP173     -0.2718
     22  CB       -14.7330  -32.6370  -28.7250 C.3   173  ASP173      0.1424
     23  CG       -14.4280  -31.1610  -28.5130 C.2   173  ASP173      0.3668
     24  OD1      -13.7030  -30.5680  -29.3460 O.co2 173  ASP173     -0.2456
     25  OD2      -14.9280  -30.5920  -27.5170 O.co2 173  ASP173     -0.2456
     26  N        -11.4670  -32.8630  -29.3270 N.am  174  GLU174     -0.1979
     27  CA       -10.1560  -33.2790  -28.8330 C.3   174  GLU174      0.1602
     28  C        -10.0420  -33.4270  -27.3180 C.2   174  GLU174      0.2287
     29  O         -9.0530  -33.9730  -26.8180 O.2   174  GLU174     -0.2864
     30  CB        -9.0470  -32.3600  -29.3800 C.3   174  GLU174      0.0415
     31  CG        -8.7890  -31.0670  -28.6210 C.3   174  GLU174      0.1163
     32  CD        -9.8960  -30.0430  -28.7700 C.2   174  GLU174      0.3649
     33  OE1      -10.6910  -30.1400  -29.7300 O.co2 174  GLU174     -0.2457
     34  OE2       -9.9570  -29.1260  -27.9280 O.co2 174  GLU174     -0.2457
     35  N         -4.3150  -32.3930  -34.2710 N.3   262  HIS262     -0.1227
     36  CA        -5.0490  -31.2780  -33.6790 C.3   262  HIS262      0.1737
     37  C         -4.0540  -30.2440  -33.1430 C.2   262  HIS262      0.2438
     38  O         -2.9900  -30.5990  -32.6450 O.2   262  HIS262     -0.2733
     39  CB        -5.9630  -31.7830  -32.5560 C.3   262  HIS262      0.0758
     40  CG        -6.9680  -30.7710  -32.1040 C.ar  262  HIS262      0.0818
     41  ND1       -6.6450  -29.7230  -31.2690 N.ar  262  HIS262     -0.2268
     42  CD2       -8.2700  -30.6000  -32.4370 C.ar  262  HIS262      0.1154
     43  CE1       -7.7040  -28.9470  -31.1100 C.ar  262  HIS262      0.1986
     44  NE2       -8.7020  -29.4570  -31.8100 N.ar  262  HIS262     -0.2212
     45  N         -4.3840  -28.9460  -33.2580 N.am  263  PRO263     -0.2729
     46  CA        -3.5010  -27.8710  -32.7860 C.3   263  PRO263      0.1401
     47  C         -3.4390  -27.6120  -31.2770 C.2   263  PRO263      0.2269
     48  O         -2.6990  -26.7310  -30.8340 O.2   263  PRO263     -0.2865
     49  CB        -4.0130  -26.6520  -33.5550 C.3   263  PRO263      0.0296
     50  CG        -5.4780  -26.9270  -33.6400 C.3   263  PRO263      0.0237
     51  CD        -5.5080  -28.3900  -34.0350 C.3   263  PRO263      0.0939
     52  N         -5.2370  -29.5050  -38.4950 N.3   296  LEU296     -0.1231
     53  CA        -6.2070  -28.4720  -38.1480 C.3   296  LEU296      0.1693
     54  C         -5.4340  -27.3020  -37.5440 C.2   296  LEU296      0.2592
     55  O         -4.4530  -27.5040  -36.8230 O.2   296  LEU296     -0.2718
     56  CB        -7.2200  -28.9970  -37.1210 C.3   296  LEU296      0.0284
     57  CG        -8.4020  -29.8450  -37.6050 C.3   296  LEU296      0.0019
     58  CD1       -7.9170  -31.1280  -38.2680 C.3   296  LEU296      0.0001
     59  CD2       -9.3030  -30.1530  -36.4020 C.3   296  LEU296      0.0001
     60  N         -5.8650  -26.0840  -37.8550 N.am  297  PHE297     -0.1963
     61  CA        -5.2220  -24.8820  -37.3310 C.3   297  PHE297      0.1756
     62  C         -6.2480  -23.7510  -37.3000 C.2   297  PHE297      0.2461
     63  O         -7.2090  -23.7550  -38.0690 O.2   297  PHE297     -0.2730
     64  CB        -4.0120  -24.5000  -38.2010 C.3   297  PHE297      0.0574
     65  CG        -4.3410  -24.3070  -39.6550 C.ar  297  PHE297     -0.0200
     66  CD1       -4.8120  -23.0810  -40.1250 C.ar  297  PHE297     -0.0042
     67  CD2       -4.1920  -25.3580  -40.5590 C.ar  297  PHE297     -0.0042
     68  CE1       -5.1280  -22.9040  -41.4760 C.ar  297  PHE297     -0.0003
     69  CE2       -4.5060  -25.1910  -41.9070 C.ar  297  PHE297     -0.0003
     70  CZ        -4.9730  -23.9630  -42.3680 C.ar  297  PHE297     -0.0000
     71  N         -6.0700  -22.7760  -36.3940 N.am  298  PRO298     -0.2727
     72  CA        -7.0280  -21.6680  -36.3190 C.3   298  PRO298      0.1402
     73  C         -7.1380  -20.9170  -37.6430 C.2   298  PRO298      0.2269
     74  O         -6.1280  -20.5160  -38.2200 O.2   298  PRO298     -0.2865
     75  CB        -6.4540  -20.7830  -35.2120 C.3   298  PRO298      0.0296
     76  CG        -5.7020  -21.7700  -34.3390 C.3   298  PRO298      0.0237
     77  CD        -5.0180  -22.6350  -35.3730 C.3   298  PRO298      0.0939
     78  N        -11.1800  -17.1910  -32.2260 N.3   304  VAL304     -0.1245
     79  CA        -9.9260  -17.9150  -32.0300 C.3   304  VAL304      0.1561
     80  C         -9.3660  -18.0190  -33.4450 C.2   304  VAL304      0.2260
     81  O         -9.8510  -18.8150  -34.2550 O.2   304  VAL304     -0.2867
     82  CB       -10.1810  -19.3310  -31.4650 C.3   304  VAL304      0.0252
     83  CG1       -8.8670  -20.0970  -31.3410 C.3   304  VAL304      0.0019
     84  CG2      -10.8700  -19.2280  -30.1100 C.3   304  VAL304      0.0019
     85  N         -9.8170  -23.9670  -38.7700 N.3   333  SER333     -0.1202
     86  CA       -10.9020  -24.2130  -37.8340 C.3   333  SER333      0.2020
     87  C        -11.2060  -23.1060  -36.8310 C.2   333  SER333      0.2619
     88  O        -10.4620  -22.1350  -36.7160 O.2   333  SER333     -0.2717
     89  CB       -10.6080  -25.5010  -37.0600 C.3   333  SER333      0.2103
     90  OG       -10.2460  -26.5580  -37.9370 O.3   333  SER333     -0.2182
     91  N        -12.3160  -23.3000  -36.1160 N.am  334  ALA334     -0.1965
     92  CA       -12.8200  -22.4070  -35.0680 C.3   334  ALA334      0.1728
     93  C        -13.8220  -21.3570  -35.5330 C.2   334  ALA334      0.2617
     94  O        -13.4870  -20.4530  -36.2920 O.2   334  ALA334     -0.2715
     95  CB       -11.6540  -21.7300  -34.3310 C.3   334  ALA334      0.0334
     96  N        -15.0620  -21.4980  -35.0700 N.am  335  GLY335     -0.1940
     97  CA       -16.1100  -20.5510  -35.4090 C.3   335  GLY335      0.2014
     98  C        -16.5930  -20.5680  -36.8480 C.2   335  GLY335      0.2638
     99  O        -17.2090  -19.6090  -37.3100 O.2   335  GLY335     -0.2714
    100  N        -16.3260  -21.6520  -37.5620 N.am  336  ILE336     -0.1977
    101  CA       -16.7530  -21.7490  -38.9520 C.3   336  ILE336      0.1596
    102  C        -18.2690  -21.9570  -39.0830 C.2   336  ILE336      0.2287
    103  O        -18.8700  -22.7480  -38.3480 O.2   336  ILE336     -0.2864
    104  CB       -16.0250  -22.9190  -39.6650 C.3   336  ILE336      0.0276
    105  CG1      -14.5050  -22.7310  -39.5680 C.3   336  ILE336      0.0022
    106  CG2      -16.4780  -23.0110  -41.1090 C.3   336  ILE336      0.0022
    107  CD1      -13.9890  -21.4320  -40.1600 C.3   336  ILE336      0.0001
    108  N        -14.5450  -27.2280  -41.6970 N.3   355  ASN355     -0.1225
    109  CA       -14.7020  -27.9010  -40.4140 C.3   355  ASN355      0.1785
    110  C        -15.5140  -27.0920  -39.4100 C.2   355  ASN355      0.2597
    111  O        -15.2020  -25.9330  -39.1460 O.2   355  ASN355     -0.2718
    112  CB       -13.3070  -28.1940  -39.8540 C.3   355  ASN355      0.1169
    113  CG       -13.3410  -28.9290  -38.5320 C.2   355  ASN355      0.2627
    114  OD1      -14.1660  -29.8210  -38.3210 O.2   355  ASN355     -0.2716
    115  ND2      -12.4180  -28.5760  -37.6390 N.am  355  ASN355     -0.0877
    116  N        -16.5420  -27.7080  -38.8310 N.am  356  ALA356     -0.1966
    117  CA       -17.3730  -26.9870  -37.8750 C.3   356  ALA356      0.1728
    118  C        -18.0420  -27.8160  -36.7840 C.2   356  ALA356      0.2617
    119  O        -18.5060  -28.9310  -37.0200 O.2   356  ALA356     -0.2715
    120  CB       -18.4340  -26.2040  -38.6320 C.3   356  ALA356      0.0334
    121  N        -18.0980  -27.2360  -35.5880 N.am  357  GLY357     -0.1940
    122  CA       -18.7430  -27.8790  -34.4590 C.3   357  GLY357      0.2014
    123  C        -20.0600  -27.1570  -34.2030 C.2   357  GLY357      0.2639
    124  O        -21.1320  -27.6740  -34.5170 O.2   357  GLY357     -0.2714
    125  N        -19.9780  -25.9510  -33.6490 N.am  358  GLY358     -0.1939
    126  CA       -21.1790  -25.1810  -33.3750 C.3   358  GLY358      0.2014
    127  C        -21.9300  -24.8280  -34.6450 C.2   358  GLY358      0.2639
    128  O        -23.1610  -24.7240  -34.6480 O.2   358  GLY358     -0.2714
    129  N        -21.1840  -24.6380  -35.7290 N.am  359  GLY359     -0.1954
    130  CA       -21.7930  -24.3020  -37.0030 C.3   359  GLY359      0.1869
    131  C        -22.7050  -25.4130  -37.4850 C.2   359  GLY359      0.2309
    132  O        -23.5770  -25.1950  -38.3280 O.2   359  GLY359     -0.2863
@<TRIPOS>BOND
     1    70    69   ar
     2    70    68   ar
     3    69    67   ar
     4   108   109    1
     5    68    66   ar
     6   106   104    1
     7    67    65   ar
     8   109   112    1
     9   109   110    1
    10   107   105    1
    11    66    65   ar
    12   112   113    1
    13   104   105    1
    14   104   101    1
    15    65    64    1
    16   110   111    2
    17   110   116   am
    18   102   101    1
    19   102   103    2
    20   101   100    1
    21   116   117    1
    22    85    86    1
    23   120   117    1
    24   113   114    2
    25   113   115   am
    26    52    53    1
    27   132   131    2
    28    58    57    1
    29    74    73    2
    30    64    61    1
    31    53    54    1
    32    53    56    1
    33    63    62    2
    34    90    89    1
    35   117   118    1
    36    60    54   am
    37    60    61    1
    38    86    89    1
    39    86    87    1
    40    73    72    1
    41    57    56    1
    42    57    59    1
    43   100    98   am
    44    54    55    2
    45   131   130    1
    46    61    62    1
    47    99    98    2
    48    62    71   am
    49   119   118    2
    50   130   129    1
    51    98    97    1
    52    87    88    2
    53    87    91   am
    54   118   121   am
    55    71    72    1
    56    71    77    1
    57    72    75    1
    58    94    93    2
    59    91    92    1
    60     1     2    1
    61   129   127   am
    62   121   122    1
    63    93    96   am
    64    93    92    1
    65    97    96    1
    66    77    76    1
    67    75    76    1
    68    92    95    1
    69     6     8    1
    70     6     5    1
    71   128   127    2
    72   127   126    1
    73     2     5    1
    74     2     3    1
    75   124   123    2
    76   122   123    1
    77    35    36    1
    78    81    80    2
    79   123   125   am
    80    51    50    1
    81    51    45    1
    82     5     7    1
    83    36    37    1
    84    36    39    1
    85   125   126    1
    86    50    49    1
    87    49    46    1
    88     3     4    2
    89    80    79    1
    90    45    37   am
    91    45    46    1
    92    37    38    2
    93    46    47    1
    94    39    40    1
    95    42    40   ar
    96    42    44   ar
    97    78    79    1
    98    40    41   ar
    99    79    82    1
   100    44    43   ar
   101    82    83    1
   102    82    84    1
   103    47    48    2
   104    41    43   ar
   105    16    17    1
   106    16    15    1
   107    14    15    1
   108    14    13    1
   109     9    10    1
   110    18    19    1
   111    19    20    1
   112    19    22    1
   113    13    10    1
   114    33    32   ar
   115    30    27    1
   116    30    31    1
   117    24    23   ar
   118    26    20   am
   119    26    27    1
   120    20    21    2
   121    10    11    1
   122    27    28    1
   123    32    31    1
   124    32    34   ar
   125    22    23    1
   126    23    25   ar
   127    12    11    2
   128    28    29    2
