@<TRIPOS>MOLECULE
tmp/2of0A00.pdb
 170 158 0 0 0
SMALL
GASTEIGER

@<TRIPOS>ATOM
      1  N         76.9290   45.1080    1.2990 N.3    14  GLN14      -0.1245
      2  CA        77.0280   46.3790    2.0460 C.3    14  GLN14       0.1566
      3  C         75.9830   47.4390    1.6430 C.2    14  GLN14       0.2260
      4  O         76.0610   48.5820    2.0940 O.2    14  GLN14      -0.2867
      5  CB        78.4350   46.9680    1.8860 C.3    14  GLN14       0.0367
      6  CG        79.5580   45.9750    2.1840 C.3    14  GLN14       0.0905
      7  CD        80.9410   46.6000    2.2160 C.2    14  GLN14       0.2608
      8  OE1       81.8490   46.0750    2.8600 O.2    14  GLN14      -0.2717
      9  NE2       81.1150   47.7150    1.5200 N.am   14  GLN14      -0.0878
     10  N         73.3780   55.5150    2.0660 N.3    32  LEU32      -0.1245
     11  CA        72.6470   54.2860    1.8520 C.3    32  LEU32       0.1561
     12  C         71.1770   54.5590    1.5490 C.2    32  LEU32       0.2260
     13  O         70.5270   55.3180    2.2380 O.2    32  LEU32      -0.2867
     14  CB        72.7390   53.4190    3.1070 C.3    32  LEU32       0.0270
     15  CG        72.1090   52.0240    3.1110 C.3    32  LEU32       0.0019
     16  CD1       73.0630   51.0020    2.5020 C.3    32  LEU32       0.0001
     17  CD2       71.7610   51.6050    4.5460 C.3    32  LEU32       0.0001
     18  N         67.5860   53.3520    1.7280 N.3    34  ASP34      -0.1239
     19  CA        66.8760   52.4020    2.6020 C.3    34  ASP34       0.1674
     20  C         65.3640   52.6180    2.5640 C.2    34  ASP34       0.2266
     21  O         64.8330   53.5160    3.2410 O.2    34  ASP34      -0.2867
     22  CB        67.3860   52.5390    4.0560 C.3    34  ASP34       0.1410
     23  CG        66.7990   51.4760    4.9830 C.2    34  ASP34       0.3668
     24  OD1       66.3110   50.4710    4.4580 O.co2  34  ASP34      -0.2456
     25  OD2       66.8410   51.6050    6.2290 O.co2  34  ASP34      -0.2456
     26  N         63.4100   50.6230    3.9510 N.3    36  GLY36      -0.1210
     27  CA        62.8810   50.0400    5.2050 C.3    36  GLY36       0.1956
     28  C         62.9480   50.9070    6.4600 C.2    36  GLY36       0.2612
     29  O         62.6740   50.4290    7.5800 O.2    36  GLY36      -0.2717
     30  N         63.3020   52.1710    6.2920 N.am   37  SER37      -0.1952
     31  CA        63.3140   53.1300    7.3750 C.3    37  SER37       0.1924
     32  C         62.9830   54.5210    6.8330 C.2    37  SER37       0.2314
     33  O         62.8880   54.7190    5.6200 O.2    37  SER37      -0.2863
     34  CB        64.6880   53.1380    8.0580 C.3    37  SER37       0.2116
     35  OG        65.7040   53.4990    7.1440 O.3    37  SER37      -0.2180
     36  N         68.6930   48.6830   17.5470 N.3    73  TYR73      -0.1241
     37  CA        68.2670   47.5120   16.7820 C.3    73  TYR73       0.1605
     38  C         68.9110   46.2850   17.4290 C.2    73  TYR73       0.2264
     39  O         69.4590   46.4130   18.5280 O.2    73  TYR73      -0.2867
     40  CB        68.6260   47.6810   15.3030 C.3    73  TYR73       0.0534
     41  CG        70.0080   48.2320   15.0640 C.ar   73  TYR73      -0.0201
     42  CD1       71.1180   47.3850   15.0580 C.ar   73  TYR73      -0.0009
     43  CD2       70.2090   49.5990   14.8330 C.ar   73  TYR73      -0.0009
     44  CE1       72.3860   47.8750   14.8330 C.ar   73  TYR73       0.0417
     45  CE2       71.4730   50.1000   14.6140 C.ar   73  TYR73       0.0417
     46  CZ        72.5580   49.2300   14.6160 C.ar   73  TYR73       0.1957
     47  OH        73.8270   49.6960   14.3980 O.3    73  TYR73      -0.2866
     48  N         77.7900   48.8120   15.8840 N.3   109  LYS109     -0.1231
     49  CA        77.4520   47.8950   14.7670 C.3   109  LYS109      0.1693
     50  C         76.5240   48.4760   13.6970 C.2   109  LYS109      0.2592
     51  O         75.7450   47.7650   13.0930 O.2   109  LYS109     -0.2718
     52  CB        76.9100   46.5700   15.3180 C.3   109  LYS109      0.0285
     53  CG        77.9880   45.7850   16.0940 C.3   109  LYS109      0.0035
     54  CD        77.4200   44.5740   16.8560 C.3   109  LYS109      0.0206
     55  CE        78.5050   43.9760   17.8110 C.3   109  LYS109      0.1093
     56  NZ        78.6770   42.4850   17.8070 N.3   109  LYS109     -0.1314
     57  N         76.6540   49.7710   13.4340 N.am  110  PHE110     -0.1976
     58  CA        75.9040   50.4350   12.3650 C.3   110  PHE110      0.1639
     59  C         76.7740   50.5620   11.1140 C.2   110  PHE110      0.2290
     60  O         76.4320   50.0940   10.0250 O.2   110  PHE110     -0.2864
     61  CB        75.4460   51.8160   12.8310 C.3   110  PHE110      0.0560
     62  CG        74.6740   52.5800   11.7920 C.ar  110  PHE110     -0.0200
     63  CD1       73.4420   52.0910   11.3230 C.ar  110  PHE110     -0.0042
     64  CD2       75.1580   53.7720   11.2830 C.ar  110  PHE110     -0.0042
     65  CE1       72.7180   52.7630   10.3750 C.ar  110  PHE110     -0.0003
     66  CE2       74.4410   54.4670   10.3170 C.ar  110  PHE110     -0.0003
     67  CZ        73.2070   53.9590    9.8550 C.ar  110  PHE110     -0.0000
     68  N         79.8620   50.0090    8.5470 N.3   112  ILE112     -0.1245
     69  CA        80.5430   48.7980    8.0880 C.3   112  ILE112      0.1561
     70  C         81.9810   49.1520    7.7870 C.2   112  ILE112      0.2260
     71  O         82.2580   50.0880    7.0280 O.2   112  ILE112     -0.2867
     72  CB        79.8980   48.1460    6.8080 C.3   112  ILE112      0.0252
     73  CG1       78.4700   47.6590    7.0720 C.3   112  ILE112      0.0019
     74  CG2       80.7770   46.9660    6.3100 C.3   112  ILE112      0.0019
     75  CD1       77.6920   47.2130    5.7970 C.3   112  ILE112      0.0001
     76  N         80.0780   54.1910    2.3580 N.3   117  TRP117     -0.1241
     77  CA        78.9850   55.0950    2.7330 C.3   117  TRP117      0.1605
     78  C         79.0570   55.5400    4.2150 C.2   117  TRP117      0.2264
     79  O         79.6720   54.8770    5.0550 O.2   117  TRP117     -0.2867
     80  CB        77.6180   54.4720    2.3950 C.3   117  TRP117      0.0550
     81  CG        77.3190   53.1900    3.1080 C.ar  117  TRP117      0.0003
     82  CD1       77.5190   51.9610    2.6340 C.ar  117  TRP117      0.0946
     83  CD2       76.7490   53.0300    4.4200 C.ar  117  TRP117      0.0152
     84  NE1       77.1430   51.0220    3.5560 N.ar  117  TRP117     -0.2442
     85  CE2       76.6530   51.6540    4.6620 C.ar  117  TRP117      0.0810
     86  CE3       76.3280   53.9200    5.4190 C.ar  117  TRP117      0.0012
     87  CZ2       76.1660   51.1340    5.8560 C.ar  117  TRP117      0.0191
     88  CZ3       75.8450   53.4020    6.6110 C.ar  117  TRP117      0.0001
     89  CH2       75.7520   52.0280    6.8110 C.ar  117  TRP117      0.0015
     90  N         72.4920   57.1930    6.0090 N.3   120  ILE120     -0.1245
     91  CA        71.3800   56.3820    5.5420 C.3   120  ILE120      0.1561
     92  C         70.2150   57.3140    5.1760 C.2   120  ILE120      0.2260
     93  O         69.8890   58.2540    5.9040 O.2   120  ILE120     -0.2867
     94  CB        70.9800   55.3370    6.6120 C.3   120  ILE120      0.0252
     95  CG1       69.8470   54.4210    6.1150 C.3   120  ILE120      0.0019
     96  CG2       70.5700   56.0360    7.9390 C.3   120  ILE120      0.0019
     97  CD1       69.4270   53.3460    7.1190 C.3   120  ILE120      0.0001
     98  N         55.8970   51.2340    6.8030 N.3   190  TYR190     -0.1241
     99  CA        56.8390   50.5770    5.8870 C.3   190  TYR190      0.1605
    100  C         56.2230   50.6320    4.4700 C.2   190  TYR190      0.2264
    101  O         55.1010   51.1110    4.2960 O.2   190  TYR190     -0.2867
    102  CB        57.1110   49.1280    6.3000 C.3   190  TYR190      0.0534
    103  CG        57.7110   48.9740    7.6930 C.ar  190  TYR190     -0.0201
    104  CD1       59.0860   48.8950    7.8800 C.ar  190  TYR190     -0.0009
    105  CD2       56.8930   48.9300    8.8350 C.ar  190  TYR190     -0.0009
    106  CE1       59.6290   48.7610    9.1500 C.ar  190  TYR190      0.0417
    107  CE2       57.4350   48.8020   10.1180 C.ar  190  TYR190      0.0417
    108  CZ        58.7940   48.7180   10.2600 C.ar  190  TYR190      0.1957
    109  OH        59.3250   48.5880   11.5100 O.3   190  TYR190     -0.2866
    110  N         53.7130   41.2280    8.8510 N.3   216  LYS216     -0.1245
    111  CA        54.0100   42.2240    7.8090 C.3   216  LYS216      0.1561
    112  C         54.5560   41.5620    6.5680 C.2   216  LYS216      0.2260
    113  O         55.1300   40.5000    6.6360 O.2   216  LYS216     -0.2867
    114  CB        55.1260   43.1830    8.2800 C.3   216  LYS216      0.0271
    115  CG        54.6640   44.5090    8.8890 C.3   216  LYS216      0.0035
    116  CD        55.8460   45.4880    9.1390 C.3   216  LYS216      0.0206
    117  CE        57.0440   44.8390    9.8460 C.3   216  LYS216      0.1093
    118  NZ        57.9260   44.0880    8.8820 N.3   216  LYS216     -0.1314
    119  N         57.0240   43.4200    3.4860 N.3   218  ILE218     -0.1245
    120  CA        57.4910   44.7570    3.1230 C.3   218  ILE218      0.1561
    121  C         58.5120   44.7070    2.0430 C.2   218  ILE218      0.2260
    122  O         59.0930   43.6740    1.8070 O.2   218  ILE218     -0.2867
    123  CB        58.0170   45.5740    4.3430 C.3   218  ILE218      0.0252
    124  CG1       59.3660   45.0120    4.8450 C.3   218  ILE218      0.0019
    125  CG2       56.9390   45.6600    5.4000 C.3   218  ILE218      0.0019
    126  CD1       60.0670   45.8490    5.9530 C.3   218  ILE218      0.0001
    127  N         62.0590   46.3540    0.9690 N.3   220  ASP220     -0.1239
    128  CA        63.1500   46.9270    1.7520 C.3   220  ASP220      0.1674
    129  C         64.5010   46.8240    1.0620 C.2   220  ASP220      0.2266
    130  O         65.1400   45.7680    1.0420 O.2   220  ASP220     -0.2867
    131  CB        63.2210   46.2050    3.0960 C.3   220  ASP220      0.1410
    132  CG        64.3250   46.7310    3.9790 C.2   220  ASP220      0.3668
    133  OD1       64.9030   47.7960    3.6720 O.co2 220  ASP220     -0.2456
    134  OD2       64.6150   46.0430    4.9720 O.co2 220  ASP220     -0.2456
    135  N         67.1790   48.0150    2.0700 N.3   222  GLY222     -0.1210
    136  CA        68.2410   47.9120    3.0540 C.3   222  GLY222      0.1956
    137  C         68.5110   46.5010    3.5660 C.2   222  GLY222      0.2612
    138  O         69.4160   46.3110    4.3900 O.2   222  GLY222     -0.2717
    139  N         67.7090   45.5210    3.1280 N.am  223  THR223     -0.1952
    140  CA        67.9190   44.1240    3.4930 C.3   223  THR223      0.1897
    141  C         68.4160   43.3860    2.2670 C.2   223  THR223      0.2313
    142  O         67.9510   43.6420    1.1630 O.2   223  THR223     -0.2863
    143  CB        66.6400   43.4610    3.9960 C.3   223  THR223      0.1794
    144  OG1       66.1660   44.1290    5.1780 O.3   223  THR223     -0.2208
    145  CG2       66.8980   42.0040    4.2960 C.3   223  THR223      0.0378
    146  N         63.4260   37.5630    3.5350 N.3   227  ARG227     -0.1245
    147  CA        63.0030   37.0390    4.8220 C.3   227  ARG227      0.1563
    148  C         61.5690   36.5410    4.7260 C.2   227  ARG227      0.2260
    149  O         60.7900   37.0710    3.9350 O.2   227  ARG227     -0.2867
    150  CB        63.0810   38.1170    5.8930 C.3   227  ARG227      0.0307
    151  CG        64.4770   38.6420    6.1230 C.3   227  ARG227      0.0489
    152  CD        64.4850   39.5730    7.3110 C.3   227  ARG227      0.2205
    153  NE        65.7840   39.6460    7.9630 N.pl3 227  ARG227     -0.0865
    154  CZ        66.0460   40.4120    9.0220 C.cat 227  ARG227      0.5346
    155  NH1       65.0920   41.1710    9.5680 N.pl3 227  ARG227      0.1354
    156  NH2       67.2700   40.4180    9.5520 N.pl3 227  ARG227      0.1354
    157  N         59.3870   39.7030   12.3000 N.3   321  THR321     -0.1218
    158  CA        58.8670   40.9910   11.8580 C.3   321  THR321      0.1862
    159  C         58.1120   40.8710   10.5180 C.2   321  THR321      0.2287
    160  O         57.3650   41.7860   10.1610 O.2   321  THR321     -0.2866
    161  CB        60.0240   41.9830   11.6540 C.3   321  THR321      0.1770
    162  OG1       60.7860   41.5840   10.5090 O.3   321  THR321     -0.2211
    163  CG2       60.9360   42.0210   12.8830 C.3   321  THR321      0.0375
    164  N         60.2920   40.0710    4.1160 N.3   324  VAL324     -0.1245
    165  CA        61.0180   41.2630    3.7360 C.3   324  VAL324      0.1561
    166  C         61.5110   40.9850    2.3530 C.2   324  VAL324      0.2260
    167  O         62.2740   40.0410    2.1200 O.2   324  VAL324     -0.2867
    168  CB        62.1920   41.6400    4.7210 C.3   324  VAL324      0.0252
    169  CG1       62.9830   42.7990    4.1860 C.3   324  VAL324      0.0019
    170  CG2       61.6490   42.0130    6.0900 C.3   324  VAL324      0.0019
@<TRIPOS>BOND
     1   127   128    1
     2   130   129    2
     3   129   128    1
     4   142   141    2
     5     1     2    1
     6     9     7   am
     7    12    11    1
     8    12    13    2
     9     3     2    1
    10     3     4    2
    11    18    19    1
    12   128   131    1
    13   122   121    2
    14    11    10    1
    15    11    14    1
    16     5     2    1
    17     5     6    1
    18   121   120    1
    19   135   136    1
    20   167   166    2
    21     6     7    1
    22     7     8    2
    23   141   140    1
    24   166   165    1
    25    76    77    1
    26    80    77    1
    27    80    81    1
    28    16    15    1
    29    20    19    1
    30    20    21    2
    31    19    22    1
    32    82    81   ar
    33    82    84   ar
    34    77    78    1
    35   136   137    1
    36   131   132    1
    37    14    15    1
    38    81    83   ar
    39    15    17    1
    40   120   119    1
    41   120   123    1
    42   139   140    1
    43   139   137   am
    44   140   143    1
    45   146   147    1
    46    84    85   ar
    47   137   138    2
    48   133   132   ar
    49   165   164    1
    50   165   168    1
    51   149   148    2
    52    26    27    1
    53   132   134   ar
    54   143   145    1
    55   143   144    1
    56    22    23    1
    57   169   168    1
    58    78    79    2
    59   101   100    2
    60   123   124    1
    61   123   125    1
    62    83    85   ar
    63    83    86   ar
    64    24    23   ar
    65   100    99    1
    66    85    87   ar
    67   168   170    1
    68   148   147    1
    69   147   150    1
    70   124   126    1
    71    23    25   ar
    72    92    91    1
    73    92    93    2
    74    27    28    1
    75    86    88   ar
    76    91    90    1
    77    91    94    1
    78    33    32    2
    79    75    73    1
    80    87    89   ar
    81    99   102    1
    82    99    98    1
    83   150   151    1
    84    95    94    1
    85    95    97    1
    86   151   152    1
    87    30    28   am
    88    30    31    1
    89   102   103    1
    90    74    72    1
    91    28    29    2
    92   112   113    2
    93   112   111    1
    94    88    89   ar
    95    94    96    1
    96    72    73    1
    97    72    69    1
    98    32    31    1
    99    71    70    2
   100    35    34    1
   101   152   153    1
   102    31    34    1
   103   103   104   ar
   104   103   105   ar
   105    70    69    1
   106   111   114    1
   107   111   110    1
   108   104   106   ar
   109   153   154    2
   110    69    68    1
   111   114   115    1
   112   105   107   ar
   113   118   117    1
   114   115   116    1
   115   154   156    1
   116   154   155    1
   117   116   117    1
   118   106   108   ar
   119    67    66   ar
   120    67    65   ar
   121    60    59    2
   122   107   108   ar
   123   160   159    2
   124   108   109    1
   125    66    64   ar
   126    65    63   ar
   127   162   161    1
   128   159   158    1
   129    59    58    1
   130    64    62   ar
   131    63    62   ar
   132   161   158    1
   133   161   163    1
   134    62    61    1
   135   158   157    1
   136    58    61    1
   137    58    57    1
   138    51    50    2
   139    57    50   am
   140    50    49    1
   141    47    46    1
   142    45    46   ar
   143    45    43   ar
   144    46    44   ar
   145    49    52    1
   146    49    48    1
   147    44    42   ar
   148    43    41   ar
   149    42    41   ar
   150    41    40    1
   151    40    37    1
   152    52    53    1
   153    53    54    1
   154    37    38    1
   155    37    36    1
   156    54    55    1
   157    38    39    2
   158    56    55    1
