@<TRIPOS>MOLECULE
tmp/2of2A00.pdb
 154 144 0 0 0
SMALL
GASTEIGER

@<TRIPOS>ATOM
      1  N         31.6150   29.5880   89.5600 N.3    19  GLU19      -0.1245
      2  CA        32.3600   30.8450   89.5620 C.3    19  GLU19       0.1567
      3  C         31.4460   32.0490   89.8140 C.2    19  GLU19       0.2260
      4  O         30.3590   32.1460   89.2420 O.2    19  GLU19      -0.2867
      5  CB        33.0780   31.0000   88.2210 C.3    19  GLU19       0.0388
      6  CG        34.0820   32.1410   88.1640 C.3    19  GLU19       0.1160
      7  CD        34.6050   32.3810   86.7570 C.2    19  GLU19       0.3649
      8  OE1       35.1350   31.4300   86.1410 O.co2  19  GLU19      -0.2457
      9  OE2       34.4900   33.5300   86.2680 O.co2  19  GLU19      -0.2457
     10  N         30.2050   35.7210   89.3660 N.3    21  LEU21      -0.1231
     11  CA        30.2390   36.7550   88.3360 C.3    21  LEU21       0.1693
     12  C         29.9800   38.1400   88.8950 C.2    21  LEU21       0.2592
     13  O         30.2810   39.1350   88.2450 O.2    21  LEU21      -0.2718
     14  CB        29.1930   36.4730   87.2530 C.3    21  LEU21       0.0284
     15  CG        29.1150   35.0310   86.7680 C.3    21  LEU21       0.0019
     16  CD1       27.9080   34.8760   85.8840 C.3    21  LEU21       0.0001
     17  CD2       30.4030   34.6520   86.0460 C.3    21  LEU21       0.0001
     18  N         29.4220   38.1960   90.0960 N.am   22  GLY22      -0.1957
     19  CA        29.1310   39.4770   90.7090 C.3    22  GLY22       0.1869
     20  C         28.6550   39.3160   92.1340 C.2    22  GLY22       0.2309
     21  O         28.0160   38.3260   92.4830 O.2    22  GLY22      -0.2863
     22  N         25.7080   36.6310   91.9910 N.3    29  VAL29      -0.1245
     23  CA        25.3780   35.9720   90.7420 C.3    29  VAL29       0.1561
     24  C         26.5870   35.1000   90.4260 C.2    29  VAL29       0.2260
     25  O         27.7270   35.5750   90.3680 O.2    29  VAL29      -0.2867
     26  CB        25.1490   36.9660   89.5890 C.3    29  VAL29       0.0252
     27  CG1       24.7990   36.1960   88.3160 C.3    29  VAL29       0.0019
     28  CG2       24.0330   37.9340   89.9460 C.3    29  VAL29       0.0019
     29  N         23.2430   30.5200   85.0230 N.3    41  ALA41      -0.1245
     30  CA        23.5850   31.7150   85.7850 C.3    41  ALA41       0.1562
     31  C         22.7030   31.5960   87.0110 C.2    41  ALA41       0.2260
     32  O         21.5090   31.3500   86.8720 O.2    41  ALA41      -0.2867
     33  CB        23.2120   32.9510   85.0070 C.3    41  ALA41       0.0290
     34  N         21.4160   33.6030   90.3540 N.3    43  LYS43      -0.1245
     35  CA        21.2490   34.8320   91.1230 C.3    43  LYS43       0.1561
     36  C         20.7040   34.3850   92.4780 C.2    43  LYS43       0.2260
     37  O         19.6250   33.8200   92.5460 O.2    43  LYS43      -0.2867
     38  CB        20.2300   35.7500   90.4110 C.3    43  LYS43       0.0271
     39  CG        20.0000   37.1370   91.0180 C.3    43  LYS43       0.0035
     40  CD        18.9810   37.9260   90.1770 C.3    43  LYS43       0.0206
     41  CE        19.1920   39.4160   90.3610 C.3    43  LYS43       0.1093
     42  NZ        18.0300   40.0960   91.0240 N.3    43  LYS43      -0.1314
     43  N         16.9780   37.0780   77.9110 N.3    71  VAL71      -0.1245
     44  CA        17.6070   36.0530   78.7420 C.3    71  VAL71       0.1561
     45  C         16.4660   35.2100   79.3070 C.2    71  VAL71       0.2260
     46  O         15.5440   35.7360   79.9250 O.2    71  VAL71      -0.2867
     47  CB        18.4450   36.6830   79.8880 C.3    71  VAL71       0.0252
     48  CG1       18.8710   35.6090   80.8870 C.3    71  VAL71       0.0019
     49  CG2       19.6790   37.3670   79.3090 C.3    71  VAL71       0.0019
     50  N         18.9270   31.1990   85.3850 N.3    86  THR86      -0.1203
     51  CA        18.6320   31.5960   84.0180 C.3    86  THR86       0.1994
     52  C         19.6560   31.0870   83.0100 C.2    86  THR86       0.2618
     53  O         20.6690   30.4690   83.3600 O.2    86  THR86      -0.2717
     54  CB        18.5960   33.1410   83.8620 C.3    86  THR86       0.1784
     55  OG1       19.9310   33.6540   83.9210 O.3    86  THR86      -0.2211
     56  CG2       17.7770   33.7880   84.9600 C.3    86  THR86       0.0376
     57  N         19.3540   31.3610   81.7470 N.am   87  GLU87      -0.1965
     58  CA        20.2030   31.0450   80.6140 C.3    87  GLU87       0.1733
     59  C         21.5180   31.7920   80.8670 C.2    87  GLU87       0.2616
     60  O         21.5010   32.9140   81.3930 O.2    87  GLU87      -0.2715
     61  CB        19.5050   31.5780   79.3660 C.3    87  GLU87       0.0429
     62  CG        20.2930   31.6210   78.0830 C.3    87  GLU87       0.1163
     63  CD        19.4330   32.1090   76.9140 C.2    87  GLU87       0.3649
     64  OE1       18.5620   32.9760   77.1350 O.co2  87  GLU87      -0.2457
     65  OE2       19.6320   31.6320   75.7750 O.co2  87  GLU87      -0.2457
     66  N         22.6310   31.1900   80.5270 N.am   88  TYR88      -0.1960
     67  CA        23.9650   31.7650   80.7180 C.3    88  TYR88       0.1771
     68  C         24.4890   32.4560   79.4550 C.2    88  TYR88       0.2619
     69  O         24.3740   31.8930   78.3650 O.2    88  TYR88      -0.2715
     70  CB        24.9640   30.6780   81.1310 C.3    88  TYR88       0.0574
     71  CG        26.3670   31.1770   81.3590 C.ar   88  TYR88      -0.0198
     72  CD1       26.6430   32.0620   82.3910 C.ar   88  TYR88      -0.0009
     73  CD2       27.4170   30.7640   80.5520 C.ar   88  TYR88      -0.0009
     74  CE1       27.9200   32.5200   82.6160 C.ar   88  TYR88       0.0417
     75  CE2       28.7090   31.2200   80.7650 C.ar   88  TYR88       0.0417
     76  CZ        28.9530   32.1000   81.8030 C.ar   88  TYR88       0.1957
     77  OH        30.2290   32.5710   82.0230 O.3    88  TYR88      -0.2866
     78  N         25.0650   33.6130   79.5880 N.am   89  MET89      -0.1963
     79  CA        25.6010   34.3240   78.4190 C.3    89  MET89       0.1736
     80  C         27.1090   34.3910   78.5730 C.2    89  MET89       0.2616
     81  O         27.6200   35.1010   79.4260 O.2    89  MET89      -0.2715
     82  CB        24.9780   35.7110   78.3140 C.3    89  MET89       0.0427
     83  CG        23.4610   35.6640   78.2230 C.3    89  MET89       0.0599
     84  SD        22.8910   34.8410   76.7650 S.3    89  MET89      -0.1393
     85  CE        23.2770   36.0030   75.5370 C.3    89  MET89       0.0692
     86  N         27.8090   33.6210   77.7560 N.am   90  GLU90      -0.1963
     87  CA        29.2580   33.5160   77.8300 C.3    90  GLU90       0.1733
     88  C         30.0870   34.8020   77.8100 C.2    90  GLU90       0.2616
     89  O         31.1600   34.8330   78.4170 O.2    90  GLU90      -0.2715
     90  CB        29.7380   32.5790   76.7210 C.3    90  GLU90       0.0429
     91  CG        31.1610   32.0640   76.8660 C.3    90  GLU90       0.1163
     92  CD        31.3920   31.3700   78.1910 C.2    90  GLU90       0.3649
     93  OE1       31.4720   32.0740   79.2220 O.co2  90  GLU90      -0.2457
     94  OE2       31.4970   30.1230   78.1950 O.co2  90  GLU90      -0.2457
     95  N         29.6230   35.8750   77.1460 N.am   91  ASN91      -0.1958
     96  CA        30.4200   37.1020   77.1110 C.3    91  ASN91       0.1819
     97  C         30.0140   38.2820   78.0050 C.2    91  ASN91       0.2622
     98  O         30.4520   39.4040   77.7900 O.2    91  ASN91      -0.2715
     99  CB        30.6100   37.5690   75.6620 C.3    91  ASN91       0.1195
    100  CG        31.6080   36.6990   74.9100 C.2    91  ASN91       0.2630
    101  OD1       32.7300   36.4950   75.3750 O.2    91  ASN91      -0.2716
    102  ND2       31.2070   36.1830   73.7580 N.am   91  ASN91      -0.0877
    103  N         29.1940   38.0120   79.0140 N.am   92  GLY92      -0.1940
    104  CA        28.8010   39.0420   79.9660 C.3    92  GLY92       0.2014
    105  C         27.9990   40.2360   79.4890 C.2    92  GLY92       0.2639
    106  O         27.2500   40.1580   78.5150 O.2    92  GLY92      -0.2714
    107  N         28.1550   41.3430   80.2080 N.am   93  SER93      -0.1949
    108  CA        27.4510   42.5740   79.8990 C.3    93  SER93       0.1924
    109  C         28.0440   43.2600   78.6780 C.2    93  SER93       0.2314
    110  O         29.2550   43.2480   78.4740 O.2    93  SER93      -0.2863
    111  CB        27.5120   43.5150   81.1010 C.3    93  SER93       0.2116
    112  OG        26.9080   44.7600   80.7990 O.3    93  SER93      -0.2180
    113  N         30.6530   45.8950   79.2900 N.3    96  ASP96      -0.1239
    114  CA        31.9680   45.3320   79.5910 C.3    96  ASP96       0.1674
    115  C         32.6160   44.7040   78.3540 C.2    96  ASP96       0.2266
    116  O         33.7970   44.9310   78.0830 O.2    96  ASP96      -0.2867
    117  CB        31.8900   44.2640   80.6910 C.3    96  ASP96       0.1410
    118  CG        31.5880   44.8460   82.0620 C.2    96  ASP96       0.3668
    119  OD1       31.9450   46.0140   82.3250 O.co2  96  ASP96      -0.2456
    120  OD2       30.9980   44.1250   82.8940 O.co2  96  ASP96      -0.2456
    121  N         24.6650   48.1220   80.2730 N.3   138  ALA138     -0.1231
    122  CA        25.0170   47.2650   81.3970 C.3   138  ALA138      0.1694
    123  C         23.9920   46.1470   81.5550 C.2   138  ALA138      0.2592
    124  O         24.2890   45.1040   82.1370 O.2   138  ALA138     -0.2718
    125  CB        25.0980   48.0850   82.7020 C.3   138  ALA138      0.0304
    126  N         22.7830   46.3680   81.0510 N.am  139  ASN139     -0.1974
    127  CA        21.7350   45.3660   81.1600 C.3   139  ASN139      0.1688
    128  C         21.4430   44.5940   79.8820 C.2   139  ASN139      0.2292
    129  O         20.3500   44.0610   79.6910 O.2   139  ASN139     -0.2864
    130  CB        20.4650   45.9940   81.7130 C.3   139  ASN139      0.1181
    131  CG        20.6250   46.3980   83.1640 C.2   139  ASN139      0.2629
    132  OD1       21.3690   45.7500   83.9170 O.2   139  ASN139     -0.2716
    133  ND2       19.9250   47.4620   83.5720 N.am  139  ASN139     -0.0877
    134  N         23.1260   41.4680   77.7210 N.3   141  LEU141     -0.1245
    135  CA        24.1190   40.4120   77.8720 C.3   141  LEU141      0.1561
    136  C         24.5290   39.8940   76.5000 C.2   141  LEU141      0.2260
    137  O         23.7440   39.9320   75.5520 O.2   141  LEU141     -0.2867
    138  CB        23.5710   39.2810   78.7490 C.3   141  LEU141      0.0270
    139  CG        23.3910   39.6870   80.2170 C.3   141  LEU141      0.0019
    140  CD1       22.8210   38.5450   81.0170 C.3   141  LEU141      0.0001
    141  CD2       24.7370   40.1190   80.7780 C.3   141  LEU141      0.0001
    142  N         18.3990   41.9120   79.5420 N.3   151  ALA151     -0.1231
    143  CA        18.4980   41.3280   80.8680 C.3   151  ALA151      0.1694
    144  C         17.9670   42.2590   81.9530 C.2   151  ALA151      0.2592
    145  O         17.5360   43.3780   81.6780 O.2   151  ALA151     -0.2718
    146  CB        19.9540   40.9650   81.1640 C.3   151  ALA151      0.0304
    147  N         18.0290   41.7640   83.1810 N.am  152  ASP152     -0.1974
    148  CA        17.5860   42.5060   84.3500 C.3   152  ASP152      0.1709
    149  C         16.1700   43.0160   84.1570 C.2   152  ASP152      0.2293
    150  O         15.9560   44.0380   83.4840 O.2   152  ASP152     -0.2864
    151  CB        18.5000   43.7040   84.5930 C.3   152  ASP152      0.1436
    152  CG        18.5480   44.1310   86.0490 C.2   152  ASP152      0.3671
    153  OD1       17.4640   44.2530   86.6680 O.co2 152  ASP152     -0.2456
    154  OD2       19.6760   44.3350   86.5570 O.co2 152  ASP152     -0.2456
@<TRIPOS>BOND
     1   102   100   am
     2   100   101    2
     3   100    99    1
     4    85    84    1
     5   137   136    2
     6    99    96    1
     7    65    63   ar
     8   136   135    1
     9    90    91    1
    10    90    87    1
    11    84    83    1
    12    91    92    1
    13    63    64   ar
    14    63    62    1
    15    96    95    1
    16    96    97    1
    17    95    88   am
    18   134   135    1
    19    86    87    1
    20    86    80   am
    21    98    97    2
    22    88    87    1
    23    88    89    2
    24   135   138    1
    25    43    44    1
    26    97   103   am
    27   116   115    2
    28    62    61    1
    29    92    94   ar
    30    92    93   ar
    31    83    82    1
    32    82    79    1
    33   115   114    1
    34    69    68    2
    35    79    80    1
    36    79    78    1
    37   110   109    2
    38   106   105    2
    39    80    81    2
    40   109   108    1
    41    44    45    1
    42    44    47    1
    43   138   139    1
    44   103   104    1
    45   113   114    1
    46    45    46    2
    47    49    47    1
    48    61    58    1
    49    68    78   am
    50    68    67    1
    51   105   104    1
    52   105   107   am
    53   142   143    1
    54   114   117    1
    55   129   128    2
    56   128   127    1
    57    47    48    1
    58   108   107    1
    59   108   111    1
    60   139   141    1
    61   139   140    1
    62   121   122    1
    63    66    67    1
    64    66    59   am
    65    73    75   ar
    66    73    71   ar
    67    58    59    1
    68    58    57    1
    69   117   118    1
    70    67    70    1
    71    75    76   ar
    72   112   111    1
    73    59    60    2
    74   143   146    1
    75   143   144    1
    76   126   127    1
    77   126   123   am
    78    70    71    1
    79   127   130    1
    80    71    72   ar
    81   122   123    1
    82   122   125    1
    83   123   124    2
    84   145   144    2
    85   130   131    1
    86    57    52   am
    87    76    77    1
    88    76    74   ar
    89   144   147   am
    90   118   119   ar
    91   118   120   ar
    92    72    74   ar
    93    52    53    2
    94    52    51    1
    95   131   133   am
    96   131   132    2
    97   147   148    1
    98   150   149    2
    99    54    55    1
   100    54    51    1
   101    54    56    1
   102    51    50    1
   103   149   148    1
   104   148   151    1
   105   151   152    1
   106    33    30    1
   107    29    30    1
   108    30    31    1
   109    16    15    1
   110    17    15    1
   111   152   154   ar
   112   152   153   ar
   113     8     7   ar
   114     9     7   ar
   115     7     6    1
   116    15    14    1
   117    32    31    2
   118    14    11    1
   119     6     5    1
   120     5     2    1
   121    13    12    2
   122    27    26    1
   123    11    12    1
   124    11    10    1
   125    12    18   am
   126     4     3    2
   127     1     2    1
   128     2     3    1
   129    26    28    1
   130    26    23    1
   131    18    19    1
   132    40    41    1
   133    40    39    1
   134    34    35    1
   135    41    42    1
   136    25    24    2
   137    38    39    1
   138    38    35    1
   139    24    23    1
   140    19    20    1
   141    23    22    1
   142    35    36    1
   143    20    21    2
   144    36    37    2
