@<TRIPOS>MOLECULE
tmp/2of8B00.pdb
 166 157 0 0 0
SMALL
GASTEIGER

@<TRIPOS>ATOM
      1  N         33.6790   31.1560   21.4740 N.3    10  ASN10      -0.1240
      2  CA        34.1490   32.2930   22.2470 C.3    10  ASN10       0.1653
      3  C         34.6820   31.8950   23.6090 C.2    10  ASN10       0.2266
      4  O         34.6930   30.7190   23.9790 O.2    10  ASN10      -0.2867
      5  CB        33.1070   33.4360   22.3140 C.3    10  ASN10       0.1155
      6  CG        31.9120   33.1380   23.2000 C.2    10  ASN10       0.2627
      7  OD1       31.9720   32.3390   24.1340 O.2    10  ASN10      -0.2716
      8  ND2       30.8060   33.8350   22.9210 N.am   10  ASN10      -0.0877
      9  N         33.6070   32.2000   26.5280 N.3    12  LEU12      -0.1245
     10  CA        32.6660   31.5930   27.4610 C.3    12  LEU12       0.1561
     11  C         32.2870   30.1610   27.0740 C.2    12  LEU12       0.2260
     12  O         31.5540   29.5090   27.8060 O.2    12  LEU12      -0.2867
     13  CB        31.3970   32.4460   27.5720 C.3    12  LEU12       0.0270
     14  CG        31.5940   33.8850   28.0330 C.3    12  LEU12       0.0019
     15  CD1       30.2680   34.6350   27.9840 C.3    12  LEU12       0.0001
     16  CD2       32.1790   33.9200   29.4390 C.3    12  LEU12       0.0001
     17  N         30.6460   29.4230   24.2030 N.3    14  SER14      -0.1217
     18  CA        29.5440   29.4510   23.2460 C.3    14  SER14       0.1889
     19  C         30.0830   29.1760   21.8530 C.2    14  SER14       0.2288
     20  O         31.2650   29.3870   21.5900 O.2    14  SER14      -0.2866
     21  CB        28.8620   30.8110   23.2700 C.3    14  SER14       0.2089
     22  OG        28.3750   31.0900   24.5600 O.3    14  SER14      -0.2183
     23  N         23.3180   30.3560   16.8380 N.3    31  TYR31      -0.1241
     24  CA        24.1150   30.6240   18.0250 C.3    31  TYR31       0.1605
     25  C         23.7100   29.6490   19.1330 C.2    31  TYR31       0.2264
     26  O         22.5220   29.5090   19.4350 O.2    31  TYR31      -0.2867
     27  CB        23.8720   32.0650   18.4970 C.3    31  TYR31       0.0534
     28  CG        24.9880   32.6280   19.3510 C.ar   31  TYR31      -0.0201
     29  CD1       25.0950   32.3160   20.7000 C.ar   31  TYR31      -0.0009
     30  CD2       25.9330   33.4880   18.8070 C.ar   31  TYR31      -0.0009
     31  CE1       26.1290   32.8380   21.4820 C.ar   31  TYR31       0.0417
     32  CE2       26.9650   34.0170   19.5740 C.ar   31  TYR31       0.0417
     33  CZ        27.0580   33.7030   20.9120 C.ar   31  TYR31       0.1957
     34  OH        28.0970   34.2350   21.6340 O.3    31  TYR31      -0.2866
     35  N         24.5490   29.5030   22.9620 N.3    33  THR33      -0.1218
     36  CA        25.1930   30.0580   24.1400 C.3    33  THR33       0.1862
     37  C         25.4910   28.9600   25.1630 C.2    33  THR33       0.2287
     38  O         24.6860   28.0520   25.3680 O.2    33  THR33      -0.2866
     39  CB        24.3780   31.2020   24.7530 C.3    33  THR33       0.1770
     40  OG1       25.1040   31.7110   25.8850 O.3    33  THR33      -0.2211
     41  CG2       22.9850   30.7700   25.2570 C.3    33  THR33       0.0375
     42  N         25.9220   29.8070   28.2730 N.3    35  VAL35      -0.1231
     43  CA        25.4110   30.3860   29.5110 C.3    35  VAL35       0.1692
     44  C         24.0870   31.1140   29.2680 C.2    35  VAL35       0.2592
     45  O         23.8140   31.6100   28.1740 O.2    35  VAL35      -0.2718
     46  CB        26.4310   31.3670   30.1580 C.3    35  VAL35       0.0266
     47  CG1       27.6970   30.6420   30.5890 C.3    35  VAL35       0.0020
     48  CG2       26.7640   32.5210   29.2140 C.3    35  VAL35       0.0020
     49  N         23.2620   31.1690   30.3050 N.am   36  ALA36      -0.1966
     50  CA        22.0090   31.9280   30.2870 C.3    36  ALA36       0.1728
     51  C         21.6300   32.2980   31.7200 C.2    36  ALA36       0.2616
     52  O         22.2930   31.8890   32.6540 O.2    36  ALA36      -0.2715
     53  CB        20.8990   31.0990   29.6640 C.3    36  ALA36       0.0334
     54  N         20.5390   33.0330   31.9080 N.am   37  ALA37      -0.1977
     55  CA        19.8970   33.1300   33.2330 C.3    37  ALA37       0.1597
     56  C         19.4170   31.7650   33.7330 C.2    37  ALA37       0.2287
     57  O         19.4960   31.4670   34.9260 O.2    37  ALA37      -0.2864
     58  CB        18.7360   34.0950   33.1870 C.3    37  ALA37       0.0319
     59  N         17.0360   35.1840   20.9780 N.3    66  TRP66      -0.1241
     60  CA        17.0460   33.9900   21.8100 C.3    66  TRP66       0.1605
     61  C         15.7060   33.2660   21.6920 C.2    66  TRP66       0.2264
     62  O         14.6540   33.8630   21.8680 O.2    66  TRP66      -0.2867
     63  CB        17.3720   34.3530   23.2630 C.3    66  TRP66       0.0550
     64  CG        18.6920   35.0490   23.3560 C.ar   66  TRP66       0.0003
     65  CD1       18.9000   36.3530   23.6820 C.ar   66  TRP66       0.0946
     66  CD2       19.9870   34.4910   23.0690 C.ar   66  TRP66       0.0152
     67  NE1       20.2390   36.6460   23.6220 N.ar   66  TRP66      -0.2442
     68  CE2       20.9310   35.5180   23.2540 C.ar   66  TRP66       0.0810
     69  CE3       20.4470   33.2180   22.6960 C.ar   66  TRP66       0.0012
     70  CZ2       22.2940   35.3260   23.0580 C.ar   66  TRP66       0.0191
     71  CZ3       21.8060   33.0220   22.5120 C.ar   66  TRP66       0.0001
     72  CH2       22.7160   34.0720   22.6910 C.ar   66  TRP66       0.0015
     73  N         14.5720   30.8990   23.5710 N.3    68  PHE68      -0.1227
     74  CA        14.1680   30.3580   24.8730 C.3    68  PHE68       0.1736
     75  C         13.9520   31.4530   25.9150 C.2    68  PHE68       0.2596
     76  O         13.7550   31.1640   27.0930 O.2    68  PHE68      -0.2718
     77  CB        15.2200   29.3590   25.3850 C.3    68  PHE68       0.0547
     78  CG        16.5970   29.9530   25.5190 C.ar   68  PHE68      -0.0202
     79  CD1       17.4650   29.9770   24.4370 C.ar   68  PHE68      -0.0042
     80  CD2       17.0150   30.5090   26.7220 C.ar   68  PHE68      -0.0042
     81  CE1       18.7310   30.5280   24.5540 C.ar   68  PHE68      -0.0003
     82  CE2       18.2760   31.0710   26.8410 C.ar   68  PHE68      -0.0003
     83  CZ        19.1300   31.0830   25.7580 C.ar   68  PHE68      -0.0000
     84  N         13.9880   32.7070   25.4770 N.am   69  SER69      -0.1952
     85  CA        13.8870   33.8580   26.3570 C.3    69  SER69       0.1924
     86  C         13.2160   34.9910   25.5990 C.2    69  SER69       0.2314
     87  O         13.1720   34.9790   24.3760 O.2    69  SER69      -0.2863
     88  CB        15.3130   34.2530   26.7590 C.3    69  SER69       0.2116
     89  OG        15.3940   35.4720   27.4570 O.3    69  SER69      -0.2180
     90  N         14.5230   37.9120   25.7880 N.3    71  SER71      -0.1217
     91  CA        15.6530   38.8100   25.6140 C.3    71  SER71       0.1889
     92  C         16.2450   38.7420   24.2070 C.2    71  SER71       0.2288
     93  O         15.9540   37.8370   23.4290 O.2    71  SER71      -0.2866
     94  CB        16.7320   38.5200   26.6590 C.3    71  SER71       0.2089
     95  OG        17.2670   37.2290   26.5540 O.3    71  SER71      -0.2183
     96  N         20.2210   39.7540   22.2110 N.3    73  THR73      -0.1218
     97  CA        21.5790   40.2890   22.2770 C.3    73  THR73       0.1862
     98  C         21.9950   40.8340   20.9330 C.2    73  THR73       0.2287
     99  O         21.6670   40.2610   19.8960 O.2    73  THR73      -0.2866
    100  CB        22.5720   39.2130   22.7260 C.3    73  THR73       0.1770
    101  OG1       22.1740   38.7590   24.0170 O.3    73  THR73      -0.2211
    102  CG2       24.0050   39.7570   22.8800 C.3    73  THR73       0.0375
    103  N         25.7270   41.9240   19.0650 N.3    75  PHE75      -0.1241
    104  CA        27.1810   41.8950   19.0850 C.3    75  PHE75       0.1605
    105  C         27.6920   42.8310   17.9940 C.2    75  PHE75       0.2264
    106  O         27.1510   42.8390   16.8820 O.2    75  PHE75      -0.2867
    107  CB        27.7140   40.5010   18.7500 C.3    75  PHE75       0.0534
    108  CG        27.4780   39.4600   19.8110 C.ar   75  PHE75      -0.0203
    109  CD1       26.2600   38.8160   19.9090 C.ar   75  PHE75      -0.0042
    110  CD2       28.4990   39.0800   20.6790 C.ar   75  PHE75      -0.0042
    111  CE1       26.0470   37.8260   20.8610 C.ar   75  PHE75      -0.0003
    112  CE2       28.2850   38.0890   21.6340 C.ar   75  PHE75      -0.0003
    113  CZ        27.0570   37.4750   21.7200 C.ar   75  PHE75      -0.0000
    114  N         29.1020   43.3620   23.3680 N.3    93  TRP93      -0.1241
    115  CA        27.6980   43.0200   23.2390 C.3    93  TRP93       0.1605
    116  C         26.8380   43.7600   24.2470 C.2    93  TRP93       0.2264
    117  O         27.3070   44.2030   25.2990 O.2    93  TRP93      -0.2867
    118  CB        27.4790   41.4960   23.3420 C.3    93  TRP93       0.0550
    119  CG        28.0400   40.8310   24.5700 C.ar   93  TRP93       0.0003
    120  CD1       29.1920   40.1190   24.6410 C.ar   93  TRP93       0.0946
    121  CD2       27.4670   40.7960   25.8920 C.ar   93  TRP93       0.0152
    122  NE1       29.3730   39.6310   25.9110 N.ar   93  TRP93      -0.2442
    123  CE2       28.3310   40.0280   26.7030 C.ar   93  TRP93       0.0810
    124  CE3       26.2970   41.3070   26.4650 C.ar   93  TRP93       0.0012
    125  CZ2       28.0680   39.7720   28.0550 C.ar   93  TRP93       0.0191
    126  CZ3       26.0410   41.0580   27.8010 C.ar   93  TRP93       0.0001
    127  CH2       26.9200   40.2950   28.5830 C.ar   93  TRP93       0.0015
    128  N         23.0040   42.8920   25.9840 N.3    95  LEU95      -0.1245
    129  CA        21.9390   41.9250   26.2120 C.3    95  LEU95       0.1561
    130  C         20.7600   42.6770   26.8230 C.2    95  LEU95       0.2260
    131  O         20.8470   43.1890   27.9450 O.2    95  LEU95      -0.2867
    132  CB        22.4170   40.8110   27.1410 C.3    95  LEU95       0.0270
    133  CG        21.3700   39.8530   27.7330 C.3    95  LEU95       0.0019
    134  CD1       20.5000   39.1480   26.7100 C.3    95  LEU95       0.0001
    135  CD2       22.0660   38.8270   28.6000 C.3    95  LEU95       0.0001
    136  N         17.1010   42.6190   28.2890 N.3    97  SER97      -0.1202
    137  CA        16.0450   41.8370   28.9060 C.3    97  SER97       0.2020
    138  C         14.7060   42.5440   28.7340 C.2    97  SER97       0.2619
    139  O         14.6410   43.7570   28.5360 O.2    97  SER97      -0.2717
    140  CB        16.3560   41.6170   30.3850 C.3    97  SER97       0.2103
    141  OG        17.4840   40.7650   30.5390 O.3    97  SER97      -0.2182
    142  N         13.6360   41.7600   28.7910 N.am   98  SER98      -0.1951
    143  CA        12.2850   42.2820   28.7460 C.3    98  SER98       0.1924
    144  C         11.8600   42.7170   30.1450 C.2    98  SER98       0.2314
    145  O         11.9370   41.9260   31.0860 O.2    98  SER98      -0.2863
    146  CB        11.3500   41.1850   28.2630 C.3    98  SER98       0.2116
    147  OG        10.0110   41.6250   28.3030 O.3    98  SER98      -0.2180
    148  N         22.3960   44.7110   29.8580 N.3   110  ARG110     -0.1245
    149  CA        23.7130   44.2460   30.2570 C.3   110  ARG110      0.1563
    150  C         24.7170   44.4580   29.1340 C.2   110  ARG110      0.2260
    151  O         24.3530   44.4690   27.9570 O.2   110  ARG110     -0.2867
    152  CB        23.6720   42.7670   30.6170 C.3   110  ARG110      0.0307
    153  CG        22.9980   42.4150   31.9280 C.3   110  ARG110      0.0489
    154  CD        22.9560   40.9050   32.0720 C.3   110  ARG110      0.2205
    155  NE        22.4600   40.3430   33.3260 N.pl3 110  ARG110     -0.0865
    156  CZ        21.2480   39.8240   33.4870 C.cat 110  ARG110      0.5346
    157  NH1       20.3380   39.8930   32.5240 N.pl3 110  ARG110      0.1354
    158  NH2       20.9310   39.2720   34.6480 N.pl3 110  ARG110      0.1354
    159  N         33.2560   39.6380   24.0980 N.3   114  ASN114     -0.1240
    160  CA        33.5980   38.2640   23.7510 C.3   114  ASN114      0.1653
    161  C         34.6580   38.2740   22.6750 C.2   114  ASN114      0.2266
    162  O         34.6110   39.0690   21.7410 O.2   114  ASN114     -0.2867
    163  CB        32.4010   37.4670   23.2030 C.3   114  ASN114      0.1155
    164  CG        31.5180   36.8450   24.2810 C.2   114  ASN114      0.2627
    165  OD1       30.3060   37.0410   24.2610 O.2   114  ASN114     -0.2716
    166  ND2       32.1030   36.0410   25.1750 N.am  114  ASN114     -0.0877
@<TRIPOS>BOND
     1    23    24    1
     2   106   105    2
     3   105   104    1
     4    24    27    1
     5    24    25    1
     6    27    28    1
     7   107   104    1
     8   107   108    1
     9    30    28   ar
    10    30    32   ar
    11   103   104    1
    12    25    26    2
    13    28    29   ar
    14    32    33   ar
    15   108   109   ar
    16   108   110   ar
    17    99    98    2
    18   109   111   ar
    19   110   112   ar
    20    29    31   ar
    21   111   113   ar
    22    33    31   ar
    23    33    34    1
    24    98    97    1
    25    59    60    1
    26     1     2    1
    27    20    19    2
    28   112   113   ar
    29    61    60    1
    30    61    62    2
    31   162   161    2
    32    60    63    1
    33    19    18    1
    34    96    97    1
    35     2     5    1
    36     2     3    1
    37    97   100    1
    38     5     6    1
    39    71    72   ar
    40    71    69   ar
    41   161   160    1
    42    72    70   ar
    43    69    66   ar
    44   100   102    1
    45   100   101    1
    46     8     6   am
    47    35    36    1
    48    70    68   ar
    49    66    68   ar
    50    66    64   ar
    51     6     7    2
    52   163   160    1
    53   163   164    1
    54   115   118    1
    55   115   114    1
    56   115   116    1
    57    18    21    1
    58    18    17    1
    59    68    67   ar
    60    63    64    1
    61    21    22    1
    62   118   119    1
    63    64    65   ar
    64    93    92    2
    65    73    74    1
    66     3     4    2
    67    67    65   ar
    68   160   159    1
    69    36    39    1
    70    36    37    1
    71    92    91    1
    72   116   117    2
    73   165   164    2
    74   164   166   am
    75    87    86    2
    76    79    81   ar
    77    79    78   ar
    78    81    83   ar
    79   119   120   ar
    80   119   121   ar
    81   120   122   ar
    82    39    41    1
    83    39    40    1
    84    74    77    1
    85    74    75    1
    86    37    38    2
    87    77    78    1
    88    84    75   am
    89    84    85    1
    90    78    80   ar
    91    86    85    1
    92    91    90    1
    93    91    94    1
    94    83    82   ar
    95   121   124   ar
    96   121   123   ar
    97   122   123   ar
    98    75    76    2
    99   128   129    1
   100   129   130    1
   101   129   132    1
   102    85    88    1
   103   124   126   ar
   104     9    10    1
   105    95    94    1
   106   123   125   ar
   107   134   133    1
   108    80    82   ar
   109    88    89    1
   110   130   131    2
   111    11    10    1
   112    11    12    2
   113   132   133    1
   114    10    13    1
   115    13    14    1
   116   133   135    1
   117   126   127   ar
   118   151   150    2
   119    15    14    1
   120    14    16    1
   121   125   127   ar
   122    45    44    2
   123   146   147    1
   124   146   143    1
   125    42    43    1
   126   136   137    1
   127   139   138    2
   128   138   142   am
   129   138   137    1
   130   143   142    1
   131   143   144    1
   132   137   140    1
   133   150   149    1
   134    48    46    1
   135    44    43    1
   136    44    49   am
   137    43    46    1
   138    53    50    1
   139   148   149    1
   140   144   145    2
   141    46    47    1
   142   149   152    1
   143    50    49    1
   144    50    51    1
   145   140   141    1
   146   152   153    1
   147    51    54   am
   148    51    52    2
   149    54    55    1
   150   153   154    1
   151   154   155    1
   152   157   156    1
   153    58    55    1
   154    55    56    1
   155   155   156    2
   156   156   158    1
   157    56    57    2
