@<TRIPOS>MOLECULE
tmp/2ofbB00.pdb
 160 151 0 0 0
SMALL
GASTEIGER

@<TRIPOS>ATOM
      1  N         33.7660   30.6860   21.4220 N.3     9  ASN9       -0.1240
      2  CA        34.2440   31.8310   22.1840 C.3     9  ASN9        0.1653
      3  C         34.8040   31.4270   23.5400 C.2     9  ASN9        0.2266
      4  O         34.8430   30.2530   23.9040 O.2     9  ASN9       -0.2867
      5  CB        33.1910   32.9690   22.2650 C.3     9  ASN9        0.1155
      6  CG        32.0180   32.6500   23.1460 C.2     9  ASN9        0.2627
      7  OD1       32.1000   31.8360   24.0640 O.2     9  ASN9       -0.2716
      8  ND2       30.9050   33.3340   22.8910 N.am    9  ASN9       -0.0877
      9  N         33.7120   31.7010   26.4740 N.3    11  LEU11      -0.1245
     10  CA        32.7750   31.0980   27.4160 C.3    11  LEU11       0.1561
     11  C         32.4060   29.6620   27.0540 C.2    11  LEU11       0.2260
     12  O         31.6820   29.0060   27.7970 O.2    11  LEU11      -0.2867
     13  CB        31.4960   31.9360   27.5330 C.3    11  LEU11       0.0270
     14  CG        31.6860   33.3810   27.9880 C.3    11  LEU11       0.0019
     15  CD1       30.3710   34.1400   27.9630 C.3    11  LEU11       0.0001
     16  CD2       32.3160   33.4290   29.3840 C.3    11  LEU11       0.0001
     17  N         30.7910   28.9370   24.1380 N.3    13  SER13      -0.1217
     18  CA        29.6670   28.9550   23.2090 C.3    13  SER13       0.1889
     19  C         30.1790   28.6550   21.8230 C.2    13  SER13       0.2288
     20  O         31.3530   28.8540   21.5290 O.2    13  SER13      -0.2866
     21  CB        28.9810   30.3180   23.2140 C.3    13  SER13       0.2089
     22  OG        28.5190   30.6150   24.5130 O.3    13  SER13      -0.2183
     23  N         23.2850   29.8630   16.9730 N.3    30  TYR30      -0.1241
     24  CA        24.0990   30.1270   18.1440 C.3    30  TYR30       0.1605
     25  C         23.7330   29.1460   19.2410 C.2    30  TYR30       0.2264
     26  O         22.5580   29.0020   19.5680 O.2    30  TYR30      -0.2867
     27  CB        23.8820   31.5740   18.6190 C.3    30  TYR30       0.0534
     28  CG        25.0250   32.1420   19.4420 C.ar   30  TYR30      -0.0201
     29  CD1       25.1730   31.8250   20.7860 C.ar   30  TYR30      -0.0009
     30  CD2       25.9480   32.9980   18.8720 C.ar   30  TYR30      -0.0009
     31  CE1       26.2170   32.3630   21.5440 C.ar   30  TYR30       0.0417
     32  CE2       26.9710   33.5380   19.6160 C.ar   30  TYR30       0.0417
     33  CZ        27.1170   33.2200   20.9460 C.ar   30  TYR30       0.1957
     34  OH        28.1590   33.7580   21.6560 O.3    30  TYR30      -0.2866
     35  N         24.6370   28.9580   23.0450 N.3    32  THR32      -0.1218
     36  CA        25.3210   29.5180   24.1940 C.3    32  THR32       0.1862
     37  C         25.6490   28.4310   25.2190 C.2    32  THR32       0.2287
     38  O         24.8480   27.5210   25.4430 O.2    32  THR32      -0.2866
     39  CB        24.5030   30.6600   24.8220 C.3    32  THR32       0.1770
     40  OG1       25.2570   31.1850   25.9210 O.3    32  THR32      -0.2211
     41  CG2       23.1480   30.2220   25.3750 C.3    32  THR32       0.0375
     42  N         26.2070   29.3000   28.3090 N.3    34  VAL34      -0.1231
     43  CA        25.7100   29.8930   29.5480 C.3    34  VAL34       0.1692
     44  C         24.3800   30.5990   29.3360 C.2    34  VAL34       0.2592
     45  O         24.0870   31.1030   28.2440 O.2    34  VAL34      -0.2718
     46  CB        26.7380   30.8900   30.1750 C.3    34  VAL34       0.0266
     47  CG1       28.0180   30.1630   30.5610 C.3    34  VAL34       0.0020
     48  CG2       27.0220   32.0670   29.2470 C.3    34  VAL34       0.0020
     49  N         23.5750   30.6560   30.3860 N.am   35  ALA35      -0.1966
     50  CA        22.3300   31.3980   30.3480 C.3    35  ALA35       0.1728
     51  C         21.8820   31.6770   31.7670 C.2    35  ALA35       0.2616
     52  O         22.3950   31.0900   32.7210 O.2    35  ALA35      -0.2715
     53  CB        21.2540   30.6110   29.5960 C.3    35  ALA35       0.0334
     54  N         20.9070   32.5590   31.9110 N.am   36  ASP36      -0.1971
     55  CA        20.3200   32.7990   33.2200 C.3    36  ASP36       0.1709
     56  C         19.7720   31.4880   33.7860 C.2    36  ASP36       0.2293
     57  O         19.9160   31.2110   34.9740 O.2    36  ASP36      -0.2864
     58  CB        19.2130   33.8480   33.1240 C.3    36  ASP36       0.1436
     59  CG        18.9510   34.5490   34.4420 C.2    36  ASP36       0.3671
     60  OD1       17.8210   35.0460   34.6040 O.co2  36  ASP36      -0.2456
     61  OD2       19.7990   34.6570   35.3560 O.co2  36  ASP36      -0.2456
     62  N         17.1130   34.7010   21.1410 N.3    65  TRP65      -0.1241
     63  CA        17.1170   33.5060   21.9770 C.3    65  TRP65       0.1605
     64  C         15.7630   32.8110   21.8710 C.2    65  TRP65       0.2264
     65  O         14.7080   33.4320   22.0420 O.2    65  TRP65      -0.2867
     66  CB        17.4660   33.8590   23.4350 C.3    65  TRP65       0.0550
     67  CG        18.7710   34.5430   23.5100 C.ar   65  TRP65       0.0003
     68  CD1       18.9840   35.8390   23.8240 C.ar   65  TRP65       0.0946
     69  CD2       20.0450   33.9850   23.2020 C.ar   65  TRP65       0.0152
     70  NE1       20.3200   36.1330   23.7380 N.ar   65  TRP65      -0.2442
     71  CE2       21.0000   35.0090   23.3600 C.ar   65  TRP65       0.0810
     72  CE3       20.4930   32.7060   22.8410 C.ar   65  TRP65       0.0012
     73  CZ2       22.3580   34.8080   23.1430 C.ar   65  TRP65       0.0191
     74  CZ3       21.8540   32.5050   22.6270 C.ar   65  TRP65       0.0001
     75  CH2       22.7660   33.5480   22.7790 C.ar   65  TRP65       0.0015
     76  N         14.6560   30.4400   23.7950 N.3    67  PHE67      -0.1227
     77  CA        14.2510   29.9090   25.0960 C.3    67  PHE67       0.1736
     78  C         14.0940   31.0150   26.1500 C.2    67  PHE67       0.2596
     79  O         13.8940   30.7180   27.3150 O.2    67  PHE67      -0.2718
     80  CB        15.2790   28.8810   25.5920 C.3    67  PHE67       0.0547
     81  CG        16.6710   29.4310   25.7070 C.ar   67  PHE67      -0.0202
     82  CD1       17.5030   29.4810   24.6010 C.ar   67  PHE67      -0.0042
     83  CD2       17.1240   29.9510   26.9050 C.ar   67  PHE67      -0.0042
     84  CE1       18.7910   29.9940   24.7050 C.ar   67  PHE67      -0.0003
     85  CE2       18.3960   30.4890   27.0190 C.ar   67  PHE67      -0.0003
     86  CZ        19.2400   30.5110   25.9210 C.ar   67  PHE67      -0.0000
     87  N         14.1990   32.2770   25.7240 N.am   68  SER68      -0.1952
     88  CA        14.1710   33.4470   26.5970 C.3    68  SER68       0.1924
     89  C         13.4700   34.5710   25.8430 C.2    68  SER68       0.2314
     90  O         13.4590   34.5970   24.6160 O.2    68  SER68      -0.2863
     91  CB        15.6230   33.8710   26.9100 C.3    68  SER68       0.2116
     92  OG        15.7560   35.0520   27.6820 O.3    68  SER68      -0.2180
     93  N         14.7350   37.4890   26.0760 N.3    70  SER70      -0.1217
     94  CA        15.8590   38.3930   25.8500 C.3    70  SER70       0.1889
     95  C         16.3970   38.3070   24.4250 C.2    70  SER70       0.2288
     96  O         16.0600   37.3950   23.6540 O.2    70  SER70      -0.2866
     97  CB        16.9820   38.1280   26.8780 C.3    70  SER70       0.2089
     98  OG        17.5350   36.8340   26.7570 O.3    70  SER70      -0.2183
     99  N         20.3380   39.2990   22.3390 N.3    72  THR72      -0.1218
    100  CA        21.6990   39.8220   22.4060 C.3    72  THR72       0.1862
    101  C         22.1280   40.3520   21.0580 C.2    72  THR72       0.2287
    102  O         21.7980   39.7800   20.0290 O.2    72  THR72      -0.2866
    103  CB        22.6830   38.7460   22.8570 C.3    72  THR72       0.1770
    104  OG1       22.2610   38.2630   24.1260 O.3    72  THR72      -0.2211
    105  CG2       24.1060   39.3070   23.0370 C.3    72  THR72       0.0375
    106  N         25.8050   41.4790   19.1300 N.3    74  PHE74      -0.1241
    107  CA        27.2640   41.4510   19.1310 C.3    74  PHE74       0.1605
    108  C         27.7720   42.3710   18.0180 C.2    74  PHE74       0.2264
    109  O         27.2250   42.3670   16.9170 O.2    74  PHE74      -0.2867
    110  CB        27.7850   40.0400   18.8140 C.3    74  PHE74       0.0534
    111  CG        27.5230   39.0020   19.8670 C.ar   74  PHE74      -0.0203
    112  CD1       26.2890   38.3800   19.9580 C.ar   74  PHE74      -0.0042
    113  CD2       28.5350   38.5850   20.7370 C.ar   74  PHE74      -0.0042
    114  CE1       26.0710   37.4070   20.9070 C.ar   74  PHE74      -0.0003
    115  CE2       28.3050   37.6010   21.6790 C.ar   74  PHE74      -0.0003
    116  CZ        27.0750   37.0190   21.7620 C.ar   74  PHE74      -0.0000
    117  N         29.2310   42.9190   23.3900 N.3    92  TRP92      -0.1241
    118  CA        27.8150   42.6150   23.2890 C.3    92  TRP92       0.1605
    119  C         26.9700   43.3620   24.2940 C.2    92  TRP92       0.2264
    120  O         27.4540   43.7940   25.3370 O.2    92  TRP92      -0.2867
    121  CB        27.5640   41.0970   23.4050 C.3    92  TRP92       0.0550
    122  CG        28.1140   40.4110   24.6150 C.ar   92  TRP92       0.0003
    123  CD1       29.2460   39.6800   24.6660 C.ar   92  TRP92       0.0946
    124  CD2       27.5390   40.3550   25.9230 C.ar   92  TRP92       0.0152
    125  NE1       29.4190   39.1550   25.9220 N.ar   92  TRP92      -0.2442
    126  CE2       28.3920   39.5640   26.7230 C.ar   92  TRP92       0.0810
    127  CE3       26.3820   40.8770   26.5060 C.ar   92  TRP92       0.0012
    128  CZ2       28.1260   39.2980   28.0700 C.ar   92  TRP92       0.0191
    129  CZ3       26.1240   40.6130   27.8270 C.ar   92  TRP92       0.0001
    130  CH2       26.9860   39.8250   28.6020 C.ar   92  TRP92       0.0015
    131  N         23.0860   42.5860   26.0490 N.3    94  LEU94      -0.1245
    132  CA        22.0300   41.6090   26.2520 C.3    94  LEU94       0.1561
    133  C         20.8480   42.3330   26.8760 C.2    94  LEU94       0.2260
    134  O         20.9210   42.8310   28.0040 O.2    94  LEU94      -0.2867
    135  CB        22.5270   40.4850   27.1370 C.3    94  LEU94       0.0270
    136  CG        21.5600   39.3240   27.3860 C.3    94  LEU94       0.0019
    137  CD1       22.3360   38.1990   28.0380 C.3    94  LEU94       0.0001
    138  CD2       20.3240   39.6520   28.2210 C.3    94  LEU94       0.0001
    139  N         17.2490   42.2620   28.4150 N.3    96  SER96      -0.1217
    140  CA        16.1880   41.5060   29.0570 C.3    96  SER96       0.1889
    141  C         14.8510   42.1840   28.8680 C.2    96  SER96       0.2288
    142  O         14.7660   43.3950   28.6670 O.2    96  SER96      -0.2866
    143  CB        16.4440   41.3900   30.5640 C.3    96  SER96       0.2089
    144  OG        17.4270   40.4450   30.8630 O.3    96  SER96      -0.2183
    145  N         22.5210   44.2190   29.9670 N.3   109  LEU109     -0.1245
    146  CA        23.8360   43.7230   30.3390 C.3   109  LEU109      0.1561
    147  C         24.8360   43.9940   29.2280 C.2   109  LEU109      0.2260
    148  O         24.4710   44.0570   28.0480 O.2   109  LEU109     -0.2867
    149  CB        23.7850   42.2190   30.6170 C.3   109  LEU109      0.0270
    150  CG        23.0210   41.7820   31.8600 C.3   109  LEU109      0.0019
    151  CD1       22.8710   40.2840   31.8820 C.3   109  LEU109      0.0001
    152  CD2       23.7130   42.2400   33.1470 C.3   109  LEU109      0.0001
    153  N         33.3340   39.1560   24.0570 N.3   113  ASN113     -0.1240
    154  CA        33.6650   37.7890   23.6920 C.3   113  ASN113      0.1653
    155  C         34.7030   37.8040   22.5900 C.2   113  ASN113      0.2266
    156  O         34.6270   38.5900   21.6440 O.2   113  ASN113     -0.2867
    157  CB        32.4440   37.0180   23.1590 C.3   113  ASN113      0.1155
    158  CG        31.5780   36.3810   24.2370 C.2   113  ASN113      0.2627
    159  OD1       30.3610   36.5650   24.2440 O.2   113  ASN113     -0.2716
    160  ND2       32.1810   35.5660   25.1000 N.am  113  ASN113     -0.0877
@<TRIPOS>BOND
     1   109   108    2
     2    23    24    1
     3   108   107    1
     4    24    27    1
     5    24    25    1
     6    27    28    1
     7   110   107    1
     8   110   111    1
     9    30    28   ar
    10    30    32   ar
    11   106   107    1
    12    25    26    2
    13    28    29   ar
    14    32    33   ar
    15   111   112   ar
    16   111   113   ar
    17   112   114   ar
    18   102   101    2
    19   113   115   ar
    20    29    31   ar
    21   114   116   ar
    22    33    31   ar
    23    33    34    1
    24   101   100    1
    25    62    63    1
    26     1     2    1
    27    20    19    2
    28   156   155    2
    29   115   116   ar
    30    19    18    1
    31    64    63    1
    32    64    65    2
    33    63    66    1
    34     2     5    1
    35     2     3    1
    36     5     6    1
    37    99   100    1
    38   100   103    1
    39   155   154    1
    40    74    75   ar
    41    74    72   ar
    42    75    73   ar
    43    72    69   ar
    44   103   105    1
    45   103   104    1
    46     8     6   am
    47    35    36    1
    48    73    71   ar
    49     6     7    2
    50   157   154    1
    51   157   158    1
    52    69    71   ar
    53    69    67   ar
    54    18    21    1
    55    18    17    1
    56    21    22    1
    57   118   117    1
    58   118   121    1
    59   118   119    1
    60    71    70   ar
    61   121   122    1
    62    66    67    1
    63    67    68   ar
    64     3     4    2
    65    96    95    2
    66   154   153    1
    67    70    68   ar
    68    76    77    1
    69    36    39    1
    70    36    37    1
    71   158   159    2
    72   158   160   am
    73   119   120    2
    74    95    94    1
    75    82    84   ar
    76    82    81   ar
    77   122   123   ar
    78   122   124   ar
    79    90    89    2
    80   123   125   ar
    81    84    86   ar
    82    39    41    1
    83    39    40    1
    84    77    80    1
    85    77    78    1
    86    37    38    2
    87    80    81    1
    88    81    83   ar
    89    87    78   am
    90    87    88    1
    91    89    88    1
    92    94    93    1
    93    94    97    1
    94    86    85   ar
    95   125   126   ar
    96   124   127   ar
    97   124   126   ar
    98   131   132    1
    99    78    79    2
   100   132   133    1
   101   132   135    1
   102     9    10    1
   103   127   129   ar
   104    88    91    1
   105   126   128   ar
   106    98    97    1
   107   133   134    2
   108    83    85   ar
   109    91    92    1
   110    11    10    1
   111    11    12    2
   112   135   136    1
   113   136   137    1
   114   136   138    1
   115    10    13    1
   116    13    14    1
   117   129   130   ar
   118    15    14    1
   119    14    16    1
   120   148   147    2
   121   128   130   ar
   122    45    44    2
   123    42    43    1
   124   139   140    1
   125   142   141    2
   126   141   140    1
   127   140   143    1
   128   147   146    1
   129    48    46    1
   130    44    43    1
   131    44    49   am
   132    43    46    1
   133    53    50    1
   134   145   146    1
   135    46    47    1
   136   146   149    1
   137    50    49    1
   138    50    51    1
   139   143   144    1
   140   149   150    1
   141    51    54   am
   142    51    52    2
   143   150   151    1
   144   150   152    1
   145    54    55    1
   146    58    55    1
   147    58    59    1
   148    55    56    1
   149    56    57    2
   150    59    60   ar
   151    59    61   ar
