@<TRIPOS>MOLECULE
tmp/2ofcA00.pdb
 96 91 0 0 0
SMALL
GASTEIGER

@<TRIPOS>ATOM
      1  N         33.6150    1.0200   29.2290 N.3    77  ASP77      -0.1225
      2  CA        35.0640    1.1310   29.2230 C.3    77  ASP77       0.1805
      3  C         35.4530    2.5690   29.5240 C.2    77  ASP77       0.2598
      4  O         34.7260    3.4990   29.1880 O.2    77  ASP77      -0.2718
      5  CB        35.6430    0.7280   27.8670 C.3    77  ASP77       0.1424
      6  CG        37.1420    0.6290   27.8840 C.2    77  ASP77       0.3668
      7  OD1       37.6730   -0.0080   28.8250 O.co2  77  ASP77      -0.2456
      8  OD2       37.7920    1.1980   26.9830 O.co2  77  ASP77      -0.2456
      9  N         36.6270    2.7290   30.1230 N.am   78  ILE78      -0.1966
     10  CA        37.1950    4.0220   30.4480 C.3    78  ILE78       0.1727
     11  C         38.5770    4.1020   29.8130 C.2    78  ILE78       0.2616
     12  O         39.3550    3.1430   29.9090 O.2    78  ILE78      -0.2715
     13  CB        37.3060    4.2170   31.9840 C.3    78  ILE78       0.0290
     14  CG1       35.9180    4.1680   32.6360 C.3    78  ILE78       0.0022
     15  CG2       38.0590    5.4990   32.3170 C.3    78  ILE78       0.0023
     16  CD1       35.9600    3.9740   34.1360 C.3    78  ILE78       0.0001
     17  N         38.8790    5.2430   29.1860 N.am   79  VAL79      -0.1963
     18  CA        40.2140    5.5210   28.6620 C.3    79  VAL79       0.1727
     19  C         40.7110    6.7960   29.3360 C.2    79  VAL79       0.2616
     20  O         40.0200    7.8070   29.3660 O.2    79  VAL79      -0.2715
     21  CB        40.2320    5.6860   27.1350 C.3    79  VAL79       0.0290
     22  CG1       41.6560    5.8410   26.6400 C.3    79  VAL79       0.0023
     23  CG2       39.5620    4.4930   26.4640 C.3    79  VAL79       0.0023
     24  N         41.9160    6.7300   29.8950 N.am   80  THR80      -0.1951
     25  CA        42.5040    7.8630   30.5900 C.3    80  THR80       0.1897
     26  C         43.7440    8.3530   29.8430 C.2    80  THR80       0.2313
     27  O         44.1080    7.8400   28.7950 O.2    80  THR80      -0.2863
     28  CB        42.8790    7.4950   32.0640 C.3    80  THR80       0.1794
     29  OG1       44.0330    6.6590   32.0670 O.3    80  THR80      -0.2208
     30  CG2       41.7350    6.8540   32.8300 C.3    80  THR80       0.0378
     31  N         36.1260    1.5630   19.3510 N.3    95  TYR95      -0.1241
     32  CA        35.4830    0.3420   19.8430 C.3    95  TYR95       0.1605
     33  C         34.9820   -0.5720   18.7340 C.2    95  TYR95       0.2264
     34  O         34.5760   -1.6880   19.0180 O.2    95  TYR95      -0.2867
     35  CB        34.3590    0.6910   20.8250 C.3    95  TYR95       0.0534
     36  CG        34.9220    1.2910   22.0780 C.ar   95  TYR95      -0.0201
     37  CD1       35.5260    0.4820   23.0310 C.ar   95  TYR95      -0.0009
     38  CD2       34.8850    2.6550   22.3140 C.ar   95  TYR95      -0.0009
     39  CE1       36.0960    1.0060   24.1700 C.ar   95  TYR95       0.0417
     40  CE2       35.4330    3.1910   23.4620 C.ar   95  TYR95       0.0417
     41  CZ        36.0510    2.3670   24.3820 C.ar   95  TYR95       0.1957
     42  OH        36.6100    2.9530   25.5020 O.3    95  TYR95      -0.2866
     43  N         42.0910   -3.7910   20.9990 N.3   100  ASN100     -0.1225
     44  CA        41.9580   -3.7570   22.4490 C.3   100  ASN100      0.1785
     45  C         40.6350   -3.1290   22.8870 C.2   100  ASN100      0.2597
     46  O         40.0320   -3.5690   23.8630 O.2   100  ASN100     -0.2718
     47  CB        43.1740   -3.1170   23.1390 C.3   100  ASN100      0.1169
     48  CG        43.3900   -1.6480   22.7890 C.2   100  ASN100      0.2627
     49  OD1       42.8350   -1.1130   21.8360 O.2   100  ASN100     -0.2716
     50  ND2       44.2580   -1.0030   23.5570 N.am  100  ASN100     -0.0877
     51  N         40.1710   -2.1310   22.1440 N.am  101  ARG101     -0.1979
     52  CA        38.8940   -1.4850   22.4380 C.3   101  ARG101      0.1597
     53  C         37.7350   -2.4200   22.0890 C.2   101  ARG101      0.2287
     54  O         36.7770   -2.5390   22.8460 O.2   101  ARG101     -0.2864
     55  CB        38.7830   -0.1460   21.6880 C.3   101  ARG101      0.0334
     56  CG        39.8820    0.8800   22.0010 C.3   101  ARG101      0.0492
     57  CD        39.3590    2.1350   22.7390 C.3   101  ARG101      0.2205
     58  NE        40.3290    3.2080   22.5850 N.pl3 101  ARG101     -0.0865
     59  CZ        41.4600    3.3270   23.2790 C.cat 101  ARG101      0.5346
     60  NH1       41.7150    2.5630   24.3220 N.pl3 101  ARG101      0.1354
     61  NH2       42.3250    4.2700   22.9360 N.pl3 101  ARG101      0.1354
     62  N         37.3920   -4.9120   24.7910 N.3   104  ALA104     -0.1245
     63  CA        36.7740   -4.3510   25.9810 C.3   104  ALA104      0.1562
     64  C         35.2490   -4.3450   25.8230 C.2   104  ALA104      0.2260
     65  O         34.5150   -4.7450   26.7380 O.2   104  ALA104     -0.2867
     66  CB        37.2990   -2.9690   26.2500 C.3   104  ALA104      0.0290
     67  N         33.7710   -7.8280   26.2360 N.3   107  ARG107     -0.1245
     68  CA        33.6750   -8.3070   27.6140 C.3   107  ARG107      0.1563
     69  C         32.3210   -8.0840   28.2370 C.2   107  ARG107      0.2260
     70  O         32.0240   -8.7460   29.2320 O.2   107  ARG107     -0.2867
     71  CB        34.8000   -7.7680   28.4900 C.3   107  ARG107      0.0307
     72  CG        36.0710   -8.5850   28.3360 C.3   107  ARG107      0.0489
     73  CD        37.1220   -8.1760   29.3170 C.3   107  ARG107      0.2205
     74  NE        37.7740   -6.9640   28.8620 N.pl3 107  ARG107     -0.0865
     75  CZ        38.8970   -6.9340   28.1480 C.cat 107  ARG107      0.5346
     76  NH1       39.3910   -5.7730   27.7940 N.pl3 107  ARG107      0.1354
     77  NH2       39.5320   -8.0460   27.7890 N.pl3 107  ARG107      0.1354
     78  N         33.6940   -1.6460   35.5980 N.3   112  TYR112     -0.1241
     79  CA        35.0670   -1.5330   35.1360 C.3   112  TYR112      0.1605
     80  C         35.7300   -0.3870   35.8750 C.2   112  TYR112      0.2264
     81  O         35.1120    0.6540   36.0870 O.2   112  TYR112     -0.2867
     82  CB        35.1230   -1.2450   33.6200 C.3   112  TYR112      0.0534
     83  CG        36.5320   -1.0670   33.1210 C.ar  112  TYR112     -0.0201
     84  CD1       37.4070   -2.1390   33.0560 C.ar  112  TYR112     -0.0009
     85  CD2       37.0110    0.1830   32.7590 C.ar  112  TYR112     -0.0009
     86  CE1       38.7170   -1.9640   32.6390 C.ar  112  TYR112      0.0417
     87  CE2       38.2950    0.3690   32.3340 C.ar  112  TYR112      0.0417
     88  CZ        39.1590   -0.7070   32.2790 C.ar  112  TYR112      0.1957
     89  OH        40.4520   -0.5010   31.8530 O.3   112  TYR112     -0.2866
     90  N         39.7680    1.7380   36.3050 N.3   114  VAL114     -0.1245
     91  CA        41.1320    1.9160   35.8840 C.3   114  VAL114      0.1561
     92  C         41.6740    3.1810   36.5300 C.2   114  VAL114      0.2260
     93  O         40.9170    4.0750   36.8790 O.2   114  VAL114     -0.2867
     94  CB        41.2260    1.9780   34.3360 C.3   114  VAL114      0.0252
     95  CG1       40.6010    3.2550   33.7870 C.3   114  VAL114      0.0019
     96  CG2       42.6620    1.7850   33.8430 C.3   114  VAL114      0.0019
@<TRIPOS>BOND
     1    33    34    2
     2    33    32    1
     3    31    32    1
     4    32    35    1
     5    35    36    1
     6    43    44    1
     7    55    56    1
     8    55    52    1
     9    49    48    2
    10    56    57    1
    11    36    38   ar
    12    36    37   ar
    13    53    52    1
    14    53    54    2
    15    51    52    1
    16    51    45   am
    17    38    40   ar
    18    44    45    1
    19    44    47    1
    20    58    57    1
    21    58    59    2
    22    48    47    1
    23    48    50   am
    24    45    46    2
    25    61    59    1
    26    37    39   ar
    27    59    60    1
    28    40    41   ar
    29    39    41   ar
    30    41    42    1
    31    62    63    1
    32    64    63    1
    33    64    65    2
    34    63    66    1
    35    67    68    1
    36    23    21    1
    37    22    21    1
    38     8     6   ar
    39    21    18    1
    40    68    69    1
    41    68    71    1
    42    77    75    1
    43    76    75    1
    44     5     6    1
    45     5     2    1
    46     6     7   ar
    47    75    74    2
    48    69    70    2
    49    72    71    1
    50    72    73    1
    51    18    17    1
    52    18    19    1
    53    27    26    2
    54    74    73    1
    55    17    11   am
    56     4     3    2
    57     2     1    1
    58     2     3    1
    59    19    20    2
    60    19    24   am
    61     3     9   am
    62    11    12    2
    63    11    10    1
    64    26    25    1
    65    24    25    1
    66     9    10    1
    67    10    13    1
    68    25    28    1
    69    89    88    1
    70    13    15    1
    71    13    14    1
    72    28    29    1
    73    28    30    1
    74    88    87   ar
    75    88    86   ar
    76    87    85   ar
    77    14    16    1
    78    86    84   ar
    79    85    83   ar
    80    84    83   ar
    81    83    82    1
    82    82    79    1
    83    95    94    1
    84    96    94    1
    85    94    91    1
    86    79    78    1
    87    79    80    1
    88    80    81    2
    89    91    90    1
    90    91    92    1
    91    92    93    2
