@<TRIPOS>MOLECULE
tmp/2ofdB00.pdb
 89 88 0 0 0
SMALL
GASTEIGER

@<TRIPOS>ATOM
      1  N         42.0090   17.7350   15.1690 N.3    27  TYR27      -0.1227
      2  CA        43.0890   18.6060   14.6750 C.3    27  TYR27       0.1736
      3  C         43.2850   19.8140   15.5810 C.2    27  TYR27       0.2595
      4  O         42.4330   20.1030   16.4250 O.2    27  TYR27      -0.2718
      5  CB        42.8160   19.0940   13.2420 C.3    27  TYR27       0.0548
      6  CG        42.8440   18.0260   12.1640 C.ar   27  TYR27      -0.0200
      7  CD1       43.3310   16.7390   12.4230 C.ar   27  TYR27      -0.0009
      8  CD2       42.4200   18.3220   10.8670 C.ar   27  TYR27      -0.0009
      9  CE1       43.3600   15.7650   11.4220 C.ar   27  TYR27       0.0417
     10  CE2       42.4420   17.3590    9.8650 C.ar   27  TYR27       0.0417
     11  CZ        42.9170   16.0920   10.1460 C.ar   27  TYR27       0.1957
     12  OH        42.9380   15.1450    9.1530 O.3    27  TYR27      -0.2866
     13  N         44.4110   20.5100   15.3970 N.am   28  ALA28      -0.1980
     14  CA        44.7370   21.7310   16.1490 C.3    28  ALA28       0.1597
     15  C         44.6000   21.5640   17.6710 C.2    28  ALA28       0.2287
     16  O         44.0300   22.4220   18.3500 O.2    28  ALA28      -0.2864
     17  CB        43.8880   22.9150   15.6480 C.3    28  ALA28       0.0319
     18  N         43.5990   27.2430   14.9930 N.3    47  SER47      -0.1202
     19  CA        42.8900   27.1840   13.7280 C.3    47  SER47       0.2020
     20  C         42.9960   25.7830   13.1150 C.2    47  SER47       0.2619
     21  O         44.0570   25.1500   13.1770 O.2    47  SER47      -0.2717
     22  CB        43.4520   28.2270   12.7540 C.3    47  SER47       0.2103
     23  OG        42.7830   28.1800   11.4990 O.3    47  SER47      -0.2182
     24  N         41.9000   25.2980   12.5320 N.am   48  GLY48      -0.1956
     25  CA        41.9350   24.0350   11.7870 C.3    48  GLY48       0.1869
     26  C         41.1000   22.8840   12.3210 C.2    48  GLY48       0.2309
     27  O         41.1970   21.7550   11.8210 O.2    48  GLY48      -0.2863
     28  N         38.7600   27.7950   10.0130 N.3    70  HIS70      -0.1226
     29  CA        39.5510   27.3120    8.8940 C.3    70  HIS70       0.1752
     30  C         40.4000   28.4640    8.3780 C.2    70  HIS70       0.2596
     31  O         39.8680   29.5160    7.9960 O.2    70  HIS70      -0.2718
     32  CB        38.6580   26.7620    7.7650 C.3    70  HIS70       0.0759
     33  CG        39.4210   26.4200    6.5240 C.ar   70  HIS70       0.0818
     34  ND1       40.2840   25.3480    6.4570 N.ar   70  HIS70      -0.2268
     35  CD2       39.4980   27.0400    5.3220 C.ar   70  HIS70       0.1154
     36  CE1       40.8420   25.3060    5.2610 C.ar   70  HIS70       0.1986
     37  NE2       40.3850   26.3240    4.5530 N.ar   70  HIS70      -0.2212
     38  N         41.7160   28.2730    8.3640 N.am   71  ASN71      -0.1960
     39  CA        42.6180   29.3120    7.8710 C.3    71  ASN71       0.1819
     40  C         42.3580   30.6510    8.5700 C.2    71  ASN71       0.2621
     41  O         42.2890   31.6950    7.9150 O.2    71  ASN71      -0.2715
     42  CB        42.4710   29.4660    6.3460 C.3    71  ASN71       0.1195
     43  CG        43.7250   29.9870    5.6950 C.2    71  ASN71       0.2630
     44  OD1       43.6980   30.9660    4.9280 O.2    71  ASN71      -0.2716
     45  ND2       44.8480   29.3540    6.0090 N.am   71  ASN71      -0.0877
     46  N         42.1790   30.5960    9.8980 N.am   72  TYR72      -0.1974
     47  CA        42.0540   31.7890   10.7690 C.3    72  TYR72       0.1639
     48  C         40.7510   32.5770   10.5980 C.2    72  TYR72       0.2290
     49  O         40.6130   33.6800   11.1420 O.2    72  TYR72      -0.2864
     50  CB        43.2980   32.6950   10.6530 C.3    72  TYR72       0.0560
     51  CG        44.5660   31.8740   10.5960 C.ar   72  TYR72      -0.0198
     52  CD1       45.1240   31.3300   11.7500 C.ar   72  TYR72      -0.0009
     53  CD2       45.1760   31.5940    9.3710 C.ar   72  TYR72      -0.0009
     54  CE1       46.2750   30.5460   11.6880 C.ar   72  TYR72       0.0417
     55  CE2       46.3120   30.8060    9.2980 C.ar   72  TYR72       0.0417
     56  CZ        46.8550   30.2870   10.4570 C.ar   72  TYR72       0.1957
     57  OH        47.9870   29.5130   10.3670 O.3    72  TYR72      -0.2866
     58  N         36.4240   16.4730    6.9740 N.3    96  TYR96      -0.1241
     59  CA        37.8620   16.2950    6.7720 C.3    96  TYR96       0.1605
     60  C         38.1780   15.0780    5.8920 C.2    96  TYR96       0.2264
     61  O         39.3510   14.7330    5.6940 O.2    96  TYR96      -0.2867
     62  CB        38.5750   16.2400    8.1360 C.3    96  TYR96       0.0534
     63  CG        38.2550   17.4680    8.9710 C.ar   96  TYR96      -0.0201
     64  CD1       39.0200   18.6290    8.8540 C.ar   96  TYR96      -0.0009
     65  CD2       37.1530   17.4840    9.8330 C.ar   96  TYR96      -0.0009
     66  CE1       38.7160   19.7730    9.5790 C.ar   96  TYR96       0.0417
     67  CE2       36.8280   18.6300   10.5680 C.ar   96  TYR96       0.0417
     68  CZ        37.6240   19.7660   10.4370 C.ar   96  TYR96       0.1957
     69  OH        37.3340   20.8950   11.1630 O.3    96  TYR96      -0.2866
     70  N         33.2390   23.6080    4.3990 N.3   105  ARG105     -0.1231
     71  CA        34.1240   24.1550    5.4290 C.3   105  ARG105      0.1694
     72  C         35.0720   25.2360    4.8620 C.2   105  ARG105      0.2591
     73  O         35.2200   26.3150    5.4460 O.2   105  ARG105     -0.2718
     74  CB        34.9180   23.0220    6.1090 C.3   105  ARG105      0.0321
     75  CG        36.1600   23.4810    6.8750 C.3   105  ARG105      0.0489
     76  CD        36.8850   22.3330    7.6080 C.3   105  ARG105      0.2205
     77  NE        37.3030   21.2390    6.7280 N.pl3 105  ARG105     -0.0865
     78  CZ        38.3380   21.2770    5.8890 C.cat 105  ARG105      0.5346
     79  NH1       39.1010   22.3660    5.7880 N.pl3 105  ARG105      0.1354
     80  NH2       38.6100   20.2160    5.1390 N.pl3 105  ARG105      0.1354
     81  N         35.7000   24.9390    3.7230 N.am  106  GLU106     -0.1979
     82  CA        36.6850   25.8400    3.1180 C.3   106  GLU106      0.1602
     83  C         36.1050   27.1940    2.6740 C.2   106  GLU106      0.2287
     84  O         36.8470   28.1800    2.5640 O.2   106  GLU106     -0.2864
     85  CB        37.4230   25.1490    1.9620 C.3   106  GLU106      0.0415
     86  CG        38.3620   24.0240    2.4150 C.3   106  GLU106      0.1163
     87  CD        38.9320   23.1940    1.2710 C.2   106  GLU106      0.3649
     88  OE1       38.7910   23.5850    0.1010 O.co2 106  GLU106     -0.2457
     89  OE2       39.5160   22.1210    1.5390 O.co2 106  GLU106     -0.2457
@<TRIPOS>BOND
     1    88    87   ar
     2    87    89   ar
     3    87    86    1
     4    85    86    1
     5    85    82    1
     6    84    83    2
     7    83    82    1
     8    82    81    1
     9    81    72   am
    10    70    71    1
    11    37    36   ar
    12    37    35   ar
    13    72    71    1
    14    72    73    2
    15    44    43    2
    16    80    78    1
    17    36    34   ar
    18    35    33   ar
    19    71    74    1
    20    61    60    2
    21    43    45   am
    22    43    42    1
    23    79    78    1
    24    78    77    2
    25    60    59    1
    26    74    75    1
    27    42    39    1
    28    34    33   ar
    29    33    32    1
    30    77    76    1
    31    59    58    1
    32    59    62    1
    33    75    76    1
    34    32    29    1
    35    39    38    1
    36    39    40    1
    37    41    40    2
    38    31    30    2
    39    62    63    1
    40    38    30   am
    41    30    29    1
    42    40    46   am
    43    64    63   ar
    44    64    66   ar
    45    29    28    1
    46    63    65   ar
    47    12    11    1
    48    55    53   ar
    49    55    56   ar
    50    53    51   ar
    51    66    68   ar
    52    65    67   ar
    53    10    11   ar
    54    10     8   ar
    55    46    47    1
    56    11     9   ar
    57    57    56    1
    58    68    67   ar
    59    68    69    1
    60    56    54   ar
    61    51    50    1
    62    51    52   ar
    63    48    47    1
    64    48    49    2
    65    50    47    1
    66     8     6   ar
    67     9     7   ar
    68    23    22    1
    69    54    52   ar
    70    25    26    1
    71    25    24    1
    72    27    26    2
    73     6     7   ar
    74     6     5    1
    75    24    20   am
    76    22    19    1
    77    20    21    2
    78    20    19    1
    79     5     2    1
    80    19    18    1
    81     2     1    1
    82     2     3    1
    83    13     3   am
    84    13    14    1
    85     3     4    2
    86    17    14    1
    87    14    15    1
    88    15    16    2
