@<TRIPOS>MOLECULE
tmp/2offA00.pdb
 166 161 0 0 0
SMALL
GASTEIGER

@<TRIPOS>ATOM
      1  N         18.7090    2.2750   46.8400 N.3    56  TRP56      -0.1227
      2  CA        20.0410    2.7700   47.1940 C.3    56  TRP56       0.1737
      3  C         20.8190    1.7740   48.0680 C.2    56  TRP56       0.2595
      4  O         21.9390    1.3970   47.7300 O.2    56  TRP56      -0.2718
      5  CB        19.9380    4.1410   47.8780 C.3    56  TRP56       0.0564
      6  CG        21.1850    5.0060   47.7950 C.ar   56  TRP56       0.0003
      7  CD1       22.3280    4.7460   47.0870 C.ar   56  TRP56       0.0946
      8  CD2       21.3850    6.2860   48.4160 C.ar   56  TRP56       0.0152
      9  NE1       23.2280    5.7770   47.2400 N.ar   56  TRP56      -0.2442
     10  CE2       22.6720    6.7380   48.0440 C.ar   56  TRP56       0.0810
     11  CE3       20.5990    7.0990   49.2470 C.ar   56  TRP56       0.0012
     12  CZ2       23.1960    7.9590   48.4860 C.ar   56  TRP56       0.0191
     13  CZ3       21.1240    8.3180   49.6840 C.ar   56  TRP56       0.0001
     14  CH2       22.4100    8.7310   49.3040 C.ar   56  TRP56       0.0015
     15  N         20.2130    1.3370   49.1720 N.am   57  ILE57      -0.1980
     16  CA        20.8530    0.3890   50.1000 C.3    57  ILE57       0.1595
     17  C         21.1930   -0.9600   49.4520 C.2    57  ILE57       0.2287
     18  O         22.2460   -1.5420   49.7290 O.2    57  ILE57      -0.2864
     19  CB        20.0060    0.1700   51.3890 C.3    57  ILE57       0.0276
     20  CG1       19.7010    1.5160   52.0470 C.3    57  ILE57       0.0022
     21  CG2       20.7570   -0.7100   52.3950 C.3    57  ILE57       0.0022
     22  CD1       18.5740    1.4940   53.0770 C.3    57  ILE57       0.0001
     23  N         24.2800   -0.5470   46.9350 N.3    60  GLN60      -0.1231
     24  CA        25.5500   -0.5760   47.6830 C.3    60  GLN60       0.1698
     25  C         25.8900   -1.9450   48.2560 C.2    60  GLN60       0.2592
     26  O         27.0640   -2.3000   48.3330 O.2    60  GLN60      -0.2718
     27  CB        25.6620    0.5180   48.7640 C.3    60  GLN60       0.0381
     28  CG        24.3700    1.1990   49.1740 C.3    60  GLN60       0.0905
     29  CD        24.5690    2.3100   50.2010 C.2    60  GLN60       0.2608
     30  OE1       24.0200    3.4040   50.0660 O.2    60  GLN60      -0.2717
     31  NE2       25.3480    2.0280   51.2340 N.am   60  GLN60      -0.0878
     32  N         24.8680   -2.7060   48.6530 N.am   61  GLN61      -0.1979
     33  CA        25.0590   -4.0910   49.0900 C.3    61  GLN61       0.1601
     34  C         25.5450   -4.9620   47.9250 C.2    61  GLN61       0.2287
     35  O         26.5360   -5.6830   48.0550 O.2    61  GLN61      -0.2864
     36  CB        23.7710   -4.6730   49.6900 C.3    61  GLN61       0.0394
     37  CG        24.0180   -5.9410   50.5000 C.3    61  GLN61       0.0908
     38  CD        22.7480   -6.5840   51.0430 C.2    61  GLN61       0.2608
     39  OE1       21.6240   -6.1380   50.7720 O.2    61  GLN61      -0.2717
     40  NE2       22.9260   -7.6460   51.8220 N.am   61  GLN61      -0.0878
     41  N         27.1570   -4.0700   45.1260 N.3    63  TYR63      -0.1227
     42  CA        28.5720   -3.7530   44.8340 C.3    63  TYR63       0.1736
     43  C         29.5350   -4.2860   45.8840 C.2    63  TYR63       0.2595
     44  O         30.6560   -4.6730   45.5590 O.2    63  TYR63      -0.2718
     45  CB        28.8160   -2.2470   44.6630 C.3    63  TYR63       0.0548
     46  CG        28.0610   -1.5860   43.5330 C.ar   63  TYR63      -0.0200
     47  CD1       27.7220   -2.2910   42.3770 C.ar   63  TYR63      -0.0009
     48  CD2       27.7100   -0.2340   43.6080 C.ar   63  TYR63      -0.0009
     49  CE1       27.0330   -1.6770   41.3410 C.ar   63  TYR63       0.0417
     50  CE2       27.0250    0.3880   42.5750 C.ar   63  TYR63       0.0417
     51  CZ        26.6890   -0.3400   41.4470 C.ar   63  TYR63       0.1957
     52  OH        26.0090    0.2700   40.4260 O.3    63  TYR63      -0.2866
     53  N         29.1130   -4.2850   47.1440 N.am   64  TYR64      -0.1962
     54  CA        29.9680   -4.7800   48.2190 C.3    64  TYR64       0.1771
     55  C         30.2320   -6.2850   48.0980 C.2    64  TYR64       0.2619
     56  O         31.3550   -6.7430   48.3360 O.2    64  TYR64      -0.2715
     57  CB        29.3790   -4.4450   49.5940 C.3    64  TYR64       0.0574
     58  CG        30.2080   -4.9670   50.7490 C.ar   64  TYR64      -0.0198
     59  CD1       31.4030   -4.3440   51.1140 C.ar   64  TYR64      -0.0009
     60  CD2       29.8000   -6.0890   51.4710 C.ar   64  TYR64      -0.0009
     61  CE1       32.1760   -4.8290   52.1740 C.ar   64  TYR64       0.0417
     62  CE2       30.5630   -6.5830   52.5300 C.ar   64  TYR64       0.0417
     63  CZ        31.7470   -5.9490   52.8780 C.ar   64  TYR64       0.1957
     64  OH        32.4970   -6.4380   53.9320 O.3    64  TYR64      -0.2866
     65  N         29.1980   -7.0360   47.7170 N.am   65  GLU65      -0.1977
     66  CA        29.2840   -8.4940   47.5960 C.3    65  GLU65       0.1602
     67  C         30.0110   -8.9190   46.3250 C.2    65  GLU65       0.2287
     68  O         30.9000   -9.7710   46.3690 O.2    65  GLU65      -0.2864
     69  CB        27.8900   -9.1360   47.6380 C.3    65  GLU65       0.0415
     70  CG        27.0470   -8.7850   48.8710 C.3    65  GLU65       0.1163
     71  CD        27.4590   -9.5240   50.1380 C.2    65  GLU65       0.3649
     72  OE1       26.8620   -9.2330   51.2010 O.co2  65  GLU65      -0.2457
     73  OE2       28.3630  -10.3940   50.0850 O.co2  65  GLU65      -0.2457
     74  N         35.7050   -0.3610   40.4760 N.3    70  ARG70      -0.1245
     75  CA        34.9870    0.8840   40.7580 C.3    70  ARG70       0.1563
     76  C         35.5260    2.0260   39.9070 C.2    70  ARG70       0.2260
     77  O         36.7400    2.1810   39.7620 O.2    70  ARG70      -0.2867
     78  CB        35.1100    1.2620   42.2360 C.3    70  ARG70       0.0307
     79  CG        34.9680    0.1010   43.1990 C.3    70  ARG70       0.0489
     80  CD        33.5880   -0.0130   43.8030 C.3    70  ARG70       0.2205
     81  NE        33.5770   -1.0950   44.7920 N.pl3  70  ARG70      -0.0865
     82  CZ        32.7330   -1.1890   45.8150 C.cat  70  ARG70       0.5346
     83  NH1       32.8230   -2.2200   46.6470 N.pl3  70  ARG70       0.1354
     84  NH2       31.8060   -0.2610   46.0140 N.pl3  70  ARG70       0.1354
     85  N         31.2060    6.3430   41.0410 N.3   144  TYR144     -0.1241
     86  CA        30.9900    7.3850   42.0390 C.3   144  TYR144      0.1605
     87  C         31.4440    8.7230   41.4880 C.2   144  TYR144      0.2264
     88  O         32.5550    8.8380   40.9800 O.2   144  TYR144     -0.2867
     89  CB        31.7770    7.1100   43.3220 C.3   144  TYR144      0.0534
     90  CG        31.5420    5.7700   43.9820 C.ar  144  TYR144     -0.0201
     91  CD1       30.8010    5.6680   45.1640 C.ar  144  TYR144     -0.0009
     92  CD2       32.0980    4.6090   43.4470 C.ar  144  TYR144     -0.0009
     93  CE1       30.6000    4.4330   45.7830 C.ar  144  TYR144      0.0417
     94  CE2       31.8980    3.3740   44.0450 C.ar  144  TYR144      0.0417
     95  CZ        31.1570    3.2900   45.2120 C.ar  144  TYR144      0.1957
     96  OH        30.9850    2.0480   45.7850 O.3   144  TYR144     -0.2866
     97  N         27.4850   12.1110   55.9760 N.3   182  ARG182     -0.1245
     98  CA        28.1360   10.8810   56.4170 C.3   182  ARG182      0.1563
     99  C         29.3540   11.1910   57.2950 C.2   182  ARG182      0.2260
    100  O         30.4940   10.9220   56.9060 O.2   182  ARG182     -0.2867
    101  CB        28.5100    9.9970   55.2140 C.3   182  ARG182      0.0307
    102  CG        27.3440    9.7070   54.2560 C.3   182  ARG182      0.0489
    103  CD        26.4510    8.5690   54.7370 C.3   182  ARG182      0.2205
    104  NE        26.4740    7.4550   53.7930 N.pl3 182  ARG182     -0.0865
    105  CZ        27.0020    6.2560   54.0260 C.cat 182  ARG182      0.5346
    106  NH1       26.9570    5.3280   53.0770 N.pl3 182  ARG182      0.1354
    107  NH2       27.5580    5.9710   55.2000 N.pl3 182  ARG182      0.1354
    108  N         32.6660    9.2440   57.8690 N.3   185  PHE185     -0.1241
    109  CA        33.7420    9.2140   56.8760 C.3   185  PHE185      0.1605
    110  C         34.4720   10.5570   56.7590 C.2   185  PHE185      0.2264
    111  O         35.0340   10.8760   55.7100 O.2   185  PHE185     -0.2867
    112  CB        33.2260    8.7390   55.5100 C.3   185  PHE185      0.0534
    113  CG        32.7280    7.3210   55.5050 C.ar  185  PHE185     -0.0203
    114  CD1       33.5750    6.2680   55.8300 C.ar  185  PHE185     -0.0042
    115  CD2       31.4100    7.0370   55.1650 C.ar  185  PHE185     -0.0042
    116  CE1       33.1090    4.9480   55.8300 C.ar  185  PHE185     -0.0003
    117  CE2       30.9380    5.7210   55.1550 C.ar  185  PHE185     -0.0003
    118  CZ        31.7890    4.6780   55.4840 C.ar  185  PHE185     -0.0000
    119  N         26.3910   12.4600   50.7140 N.3   216  ASP216     -0.1239
    120  CA        26.0220   11.5630   49.6140 C.3   216  ASP216      0.1674
    121  C         24.6520   11.8930   49.0330 C.2   216  ASP216      0.2266
    122  O         23.6810   12.0860   49.7670 O.2   216  ASP216     -0.2867
    123  CB        26.0510   10.0920   50.0600 C.3   216  ASP216      0.1410
    124  CG        27.4510    9.6020   50.3810 C.2   216  ASP216      0.3668
    125  OD1       27.5870    8.4610   50.8890 O.co2 216  ASP216     -0.2456
    126  OD2       28.4190   10.3600   50.1350 O.co2 216  ASP216     -0.2456
    127  N         26.0890    6.5720   43.7360 N.3   229  THR229     -0.1218
    128  CA        26.3660    7.5940   44.7420 C.3   229  THR229      0.1862
    129  C         27.2200    8.7320   44.1980 C.2   229  THR229      0.2287
    130  O         28.2470    8.5000   43.5620 O.2   229  THR229     -0.2866
    131  CB        27.0680    6.9610   45.9720 C.3   229  THR229      0.1770
    132  OG1       26.1710    6.0420   46.6000 O.3   229  THR229     -0.2211
    133  CG2       27.4700    8.0160   46.9930 C.3   229  THR229      0.0375
    134  N         29.3500   11.6470   45.8980 N.3   231  ARG231     -0.1245
    135  CA        29.8860   12.0900   47.1900 C.3   231  ARG231      0.1563
    136  C         30.5770   13.4500   47.0830 C.2   231  ARG231      0.2260
    137  O         31.5720   13.6030   46.3710 O.2   231  ARG231     -0.2867
    138  CB        30.8520   11.0520   47.7790 C.3   231  ARG231      0.0307
    139  CG        31.4790   11.4780   49.1100 C.3   231  ARG231      0.0489
    140  CD        32.0540   10.2970   49.8870 C.3   231  ARG231      0.2205
    141  NE        30.9950    9.4240   50.3860 N.pl3 231  ARG231     -0.0865
    142  CZ        31.1820    8.3330   51.1260 C.cat 231  ARG231      0.5346
    143  NH1       30.1270    7.6240   51.5100 N.pl3 231  ARG231      0.1354
    144  NH2       32.4050    7.9470   51.4900 N.pl3 231  ARG231      0.1354
    145  N         40.7240    3.6970   51.4030 N.3   292  ARG292     -0.1231
    146  CA        39.9760    3.0820   52.5040 C.3   292  ARG292      0.1694
    147  C         39.0570    1.9760   51.9910 C.2   292  ARG292      0.2591
    148  O         39.1020    0.8490   52.4860 O.2   292  ARG292     -0.2718
    149  CB        39.1550    4.1280   53.2610 C.3   292  ARG292      0.0321
    150  CG        38.2880    3.5500   54.3890 C.3   292  ARG292      0.0489
    151  CD        37.2330    4.5380   54.8920 C.3   292  ARG292      0.2205
    152  NE        36.3800    5.0620   53.8240 N.pl3 292  ARG292     -0.0865
    153  CZ        35.3860    4.3940   53.2360 C.cat 292  ARG292      0.5346
    154  NH1       34.6800    4.9770   52.2770 N.pl3 292  ARG292      0.1354
    155  NH2       35.0930    3.1470   53.5930 N.pl3 292  ARG292      0.1354
    156  N         38.2370    2.3100   50.9930 N.am  293  ARG293     -0.1980
    157  CA        37.2860    1.3750   50.4030 C.3   293  ARG293      0.1597
    158  C         37.9780    0.1880   49.7370 C.2   293  ARG293      0.2287
    159  O         37.4700   -0.9310   49.7930 O.2   293  ARG293     -0.2864
    160  CB        36.3780    2.0930   49.4010 C.3   293  ARG293      0.0334
    161  CG        35.1180    1.3210   49.0450 C.3   293  ARG293      0.0492
    162  CD        34.1980    2.1170   48.1200 C.3   293  ARG293      0.2205
    163  NE        33.5370    3.2290   48.8080 N.pl3 293  ARG293     -0.0865
    164  CZ        33.7590    4.5180   48.5620 C.cat 293  ARG293      0.5346
    165  NH1       33.0960    5.4400   49.2480 N.pl3 293  ARG293      0.1354
    166  NH2       34.6310    4.8940   47.6300 N.pl3 293  ARG293      0.1354
@<TRIPOS>BOND
     1    77    76    2
     2    76    75    1
     3    52    51    1
     4    74    75    1
     5    75    78    1
     6    88    87    2
     7    85    86    1
     8    49    51   ar
     9    49    47   ar
    10    51    50   ar
    11    87    86    1
    12    86    89    1
    13    78    79    1
    14    47    46   ar
    15    50    48   ar
    16    79    80    1
    17    89    90    1
    18    92    90   ar
    19    92    94   ar
    20    46    48   ar
    21    46    45    1
    22   130   129    2
    23   127   128    1
    24    80    81    1
    25    90    91   ar
    26    94    95   ar
    27   129   128    1
    28    45    42    1
    29   128   131    1
    30    81    82    2
    31    42    41    1
    32    42    43    1
    33    91    93   ar
    34    95    93   ar
    35    95    96    1
    36    44    43    2
    37    82    84    1
    38    82    83    1
    39    43    53   am
    40   134   135    1
    41   131   132    1
    42   131   133    1
    43    67    68    2
    44    67    66    1
    45   137   136    2
    46     1     2    1
    47    23    24    1
    48   136   135    1
    49     7     9   ar
    50     7     6   ar
    51    53    54    1
    52   135   138    1
    53     2     5    1
    54     2     3    1
    55     9    10   ar
    56    66    69    1
    57    66    65    1
    58   166   164    1
    59    69    70    1
    60    24    25    1
    61    24    27    1
    62    65    55   am
    63     4     3    2
    64   138   139    1
    65     6     5    1
    66     6     8   ar
    67    34    35    2
    68    34    33    1
    69    10     8   ar
    70    10    12   ar
    71     3    15   am
    72    55    54    1
    73    55    56    2
    74   162   163    1
    75   162   161    1
    76    54    57    1
    77    25    26    2
    78    25    32   am
    79     8    11   ar
    80    12    14   ar
    81   164   163    2
    82   164   165    1
    83    32    33    1
    84    27    28    1
    85    70    71    1
    86   121   120    1
    87   121   122    2
    88   161   160    1
    89    33    36    1
    90   139   140    1
    91    15    16    1
    92    28    29    1
    93    11    13   ar
    94    14    13   ar
    95   160   157    1
    96    17    18    2
    97    17    16    1
    98    57    58    1
    99   120   123    1
   100   120   119    1
   101    36    37    1
   102   158   159    2
   103   158   157    1
   104   140   141    1
   105   123   124    1
   106    30    29    2
   107    73    71   ar
   108    16    19    1
   109   126   124   ar
   110    71    72   ar
   111    29    31   am
   112   124   125   ar
   113   141   142    2
   114   157   156    1
   115    37    38    1
   116    58    59   ar
   117    58    60   ar
   118    39    38    2
   119   156   147   am
   120    38    40   am
   121    59    61   ar
   122   142   144    1
   123   142   143    1
   124    19    20    1
   125    19    21    1
   126   145   146    1
   127    60    62   ar
   128   147   148    2
   129   147   146    1
   130    20    22    1
   131    61    63   ar
   132   154   153    1
   133   146   149    1
   134    62    63   ar
   135    63    64    1
   136   106   105    1
   137   153   155    1
   138   153   152    2
   139   149   150    1
   140   104   105    2
   141   104   103    1
   142   152   151    1
   143   105   107    1
   144   102   103    1
   145   102   101    1
   146   150   151    1
   147   117   115   ar
   148   117   118   ar
   149   115   113   ar
   150   101    98    1
   151   118   116   ar
   152   113   112    1
   153   113   114   ar
   154   112   109    1
   155   111   110    2
   156   114   116   ar
   157    97    98    1
   158    98    99    1
   159   110   109    1
   160   109   108    1
   161   100    99    2
