@<TRIPOS>MOLECULE
tmp/2ofkB00.pdb
 127 123 0 0 0
SMALL
GASTEIGER

@<TRIPOS>ATOM
      1  N         36.3330   18.8020   13.0310 N.3     6  TRP6       -0.1241
      2  CA        35.1910   19.6670   13.3640 C.3     6  TRP6        0.1605
      3  C         34.0390   18.9310   14.0140 C.2     6  TRP6        0.2264
      4  O         33.1480   19.5590   14.5530 O.2     6  TRP6       -0.2867
      5  CB        34.6690   20.3950   12.1480 C.3     6  TRP6        0.0550
      6  CG        34.4880   19.5650   10.9130 C.ar    6  TRP6        0.0003
      7  CD1       35.3560   19.5150    9.8560 C.ar    6  TRP6        0.0946
      8  CD2       33.3840   18.6790   10.5740 C.ar    6  TRP6        0.0152
      9  NE1       34.8630   18.6900    8.8860 N.ar    6  TRP6       -0.2442
     10  CE2       33.6660   18.1560    9.2830 C.ar    6  TRP6        0.0810
     11  CE3       32.1810   18.3010   11.2160 C.ar    6  TRP6        0.0012
     12  CZ2       32.8040   17.2590    8.6130 C.ar    6  TRP6        0.0191
     13  CZ3       31.3070   17.4020   10.5480 C.ar    6  TRP6        0.0001
     14  CH2       31.6250   16.9060    9.2460 C.ar    6  TRP6        0.0015
     15  N         26.2280   13.5480   15.7810 N.3    13  TYR13      -0.1241
     16  CA        27.1220   14.2870   14.8830 C.3    13  TYR13       0.1605
     17  C         28.1710   13.3210   14.3210 C.2    13  TYR13       0.2264
     18  O         28.5020   13.3940   13.1430 O.2    13  TYR13      -0.2867
     19  CB        27.8120   15.4120   15.6280 C.3    13  TYR13       0.0534
     20  CG        28.2370   16.5960   14.7810 C.ar   13  TYR13      -0.0201
     21  CD1       28.0400   16.6230   13.3820 C.ar   13  TYR13      -0.0009
     22  CD2       28.8510   17.6830   15.3690 C.ar   13  TYR13      -0.0009
     23  CE1       28.4290   17.7520   12.6240 C.ar   13  TYR13       0.0417
     24  CE2       29.2380   18.8040   14.6220 C.ar   13  TYR13       0.0417
     25  CZ        29.0250   18.8360   13.2610 C.ar   13  TYR13       0.1957
     26  OH        29.4360   19.9480   12.5410 O.3    13  TYR13      -0.2866
     27  N         26.4750   11.4670   11.5990 N.3    16  TYR16      -0.1241
     28  CA        26.3380   12.3640   10.4510 C.3    16  TYR16       0.1605
     29  C         27.6530   12.4530    9.6450 C.2    16  TYR16       0.2264
     30  O         27.6680   12.2840    8.3990 O.2    16  TYR16      -0.2867
     31  CB        25.8720   13.7540   10.9200 C.3    16  TYR16       0.0534
     32  CG        25.8440   14.6840    9.7680 C.ar   16  TYR16      -0.0201
     33  CD1       24.8350   14.5930    8.8180 C.ar   16  TYR16      -0.0009
     34  CD2       26.8770   15.6270    9.5770 C.ar   16  TYR16      -0.0009
     35  CE1       24.8440   15.4290    7.7010 C.ar   16  TYR16       0.0417
     36  CE2       26.8860   16.4530    8.4720 C.ar   16  TYR16       0.0417
     37  CZ        25.8710   16.3400    7.5370 C.ar   16  TYR16       0.1957
     38  OH        25.8910   17.1430    6.4120 O.3    16  TYR16      -0.2866
     39  N         27.9910   13.0370    5.4630 N.3    21  TRP21      -0.1241
     40  CA        28.7210   14.2230    4.9750 C.3    21  TRP21       0.1605
     41  C         29.7100   13.8090    3.9170 C.2    21  TRP21       0.2264
     42  O         30.5080   12.9060    4.1170 O.2    21  TRP21      -0.2867
     43  CB        29.4000   14.9290    6.1400 C.3    21  TRP21       0.0550
     44  CG        29.9080   16.3140    5.8680 C.ar   21  TRP21       0.0003
     45  CD1       29.1790   17.4980    5.8510 C.ar   21  TRP21       0.0946
     46  CD2       31.2650   16.6750    5.6030 C.ar   21  TRP21       0.0152
     47  NE1       29.9990   18.5540    5.5840 N.ar   21  TRP21      -0.2442
     48  CE2       31.2950   18.0960    5.4520 C.ar   21  TRP21       0.0810
     49  CE3       32.4670   15.9410    5.4900 C.ar   21  TRP21       0.0012
     50  CZ2       32.4930   18.7960    5.1900 C.ar   21  TRP21       0.0191
     51  CZ3       33.6350   16.6300    5.2260 C.ar   21  TRP21       0.0001
     52  CH2       33.6470   18.0400    5.0940 C.ar   21  TRP21       0.0015
     53  N         20.6750   23.7230    5.1880 N.3    38  GLU38      -0.1245
     54  CA        21.8560   24.5920    5.2560 C.3    38  GLU38       0.1567
     55  C         21.4800   26.0550    5.4510 C.2    38  GLU38       0.2260
     56  O         22.1480   26.8240    6.2150 O.2    38  GLU38      -0.2867
     57  CB        22.7210   24.4110    3.9930 C.3    38  GLU38       0.0388
     58  CG        23.2570   22.9750    3.8640 C.3    38  GLU38       0.1160
     59  CD        24.4990   22.7130    4.6810 C.2    38  GLU38       0.3649
     60  OE1       24.8360   23.5430    5.5590 O.co2  38  GLU38      -0.2457
     61  OE2       25.1500   21.6550    4.4320 O.co2  38  GLU38      -0.2457
     62  N         20.7000   26.8880    9.0470 N.3    41  GLN41      -0.1245
     63  CA        21.8590   26.9490    9.9120 C.3    41  GLN41       0.1566
     64  C         22.4970   28.3330    9.8960 C.2    41  GLN41       0.2260
     65  O         23.4240   28.5990   10.6800 O.2    41  GLN41      -0.2867
     66  CB        22.8710   25.8760    9.4420 C.3    41  GLN41       0.0367
     67  CG        23.9190   25.5950   10.4660 C.3    41  GLN41       0.0905
     68  CD        25.2900   25.5410    9.8490 C.2    41  GLN41       0.2608
     69  OE1       25.6700   24.5470    9.2350 O.2    41  GLN41      -0.2717
     70  NE2       26.0240   26.6390    9.9530 N.am   41  GLN41      -0.0878
     71  N         25.7140   23.7410   12.9940 N.3    46  TRP46      -0.1241
     72  CA        25.0520   22.6000   12.3730 C.3    46  TRP46       0.1605
     73  C         24.3610   21.6800   13.3980 C.2    46  TRP46       0.2264
     74  O         23.2860   21.1790   13.1300 O.2    46  TRP46      -0.2867
     75  CB        26.0220   21.8000   11.5030 C.3    46  TRP46       0.0550
     76  CG        25.3450   20.6060   10.8430 C.ar   46  TRP46       0.0003
     77  CD1       25.5910   19.3010   11.0810 C.ar   46  TRP46       0.0946
     78  CD2       24.2990   20.6410    9.8530 C.ar   46  TRP46       0.0152
     79  NE1       24.7920   18.4880   10.3030 N.ar   46  TRP46      -0.2442
     80  CE2       23.9700   19.2940    9.5490 C.ar   46  TRP46       0.0810
     81  CE3       23.5940   21.6740    9.2110 C.ar   46  TRP46       0.0012
     82  CZ2       23.0150   18.9520    8.6040 C.ar   46  TRP46       0.0191
     83  CZ3       22.6410   21.3260    8.2690 C.ar   46  TRP46       0.0001
     84  CH2       22.3440   19.9860    7.9870 C.ar   46  TRP46       0.0015
     85  N         41.7460   21.4000    8.3880 N.3   132  LEU132     -0.1245
     86  CA        40.6070   22.2840    8.1650 C.3   132  LEU132      0.1561
     87  C         41.0250   23.7280    7.8180 C.2   132  LEU132      0.2260
     88  O         40.3500   24.4270    7.0560 O.2   132  LEU132     -0.2867
     89  CB        39.7220   22.2220    9.4140 C.3   132  LEU132      0.0270
     90  CG        38.3980   22.9790    9.3380 C.3   132  LEU132      0.0019
     91  CD1       37.5670   22.4980    8.1220 C.3   132  LEU132      0.0001
     92  CD2       37.6420   22.7710   10.6300 C.3   132  LEU132      0.0001
     93  N         41.0010   24.3500    4.1220 N.3   135  ILE135     -0.1245
     94  CA        39.7540   24.0510    3.4180 C.3   135  ILE135      0.1561
     95  C         38.9860   25.3710    3.3660 C.2   135  ILE135      0.2260
     96  O         38.8210   26.0360    4.3940 O.2   135  ILE135     -0.2867
     97  CB        38.9320   22.9740    4.1640 C.3   135  ILE135      0.0252
     98  CG1       39.7070   21.6620    4.1580 C.3   135  ILE135      0.0019
     99  CG2       37.5770   22.7510    3.4880 C.3   135  ILE135      0.0019
    100  CD1       39.0100   20.5170    4.8290 C.3   135  ILE135      0.0001
    101  N         35.8220   28.1840    2.9320 N.3   137  THR137     -0.1218
    102  CA        34.3810   28.2300    3.2880 C.3   137  THR137      0.1862
    103  C         33.4880   28.6950    2.1290 C.2   137  THR137      0.2287
    104  O         32.2660   28.6510    2.2370 O.2   137  THR137     -0.2866
    105  CB        34.1110   29.0900    4.5280 C.3   137  THR137      0.1770
    106  OG1       34.6470   30.4000    4.3280 O.3   137  THR137     -0.2211
    107  CG2       34.7760   28.4430    5.7630 C.3   137  THR137      0.0375
    108  N         28.7670   24.9890    2.0120 N.3   164  SER164     -0.1217
    109  CA        28.4700   23.9790    3.0310 C.3   164  SER164      0.1889
    110  C         27.5510   22.8960    2.4590 C.2   164  SER164      0.2288
    111  O         27.7490   21.6950    2.7040 O.2   164  SER164     -0.2866
    112  CB        27.8030   24.6380    4.2300 C.3   164  SER164      0.2089
    113  OG        28.6880   25.5770    4.8560 O.3   164  SER164     -0.2183
    114  N         29.6360   20.6220    0.2110 N.3   167  GLN167     -0.1231
    115  CA        30.3810   19.6770    1.0560 C.3   167  GLN167      0.1698
    116  C         29.4890   18.5640    1.5820 C.2   167  GLN167      0.2592
    117  O         29.8250   17.3760    1.5020 O.2   167  GLN167     -0.2718
    118  CB        30.9960   20.3940    2.2480 C.3   167  GLN167      0.0381
    119  CG        32.0940   21.4100    1.9290 C.3   167  GLN167      0.0905
    120  CD        32.5360   22.1180    3.1890 C.2   167  GLN167      0.2608
    121  OE1       31.7040   22.5890    3.9900 O.2   167  GLN167     -0.2717
    122  NE2       33.8280   22.2230    3.3670 N.am  167  GLN167     -0.0878
    123  N         28.3410   18.9520    2.1220 N.am  168  ALA168     -0.1980
    124  CA        27.4510   17.9880    2.7640 C.3   168  ALA168      0.1597
    125  C         26.9580   16.9180    1.7950 C.2   168  ALA168      0.2287
    126  O         26.8580   15.7280    2.1600 O.2   168  ALA168     -0.2864
    127  CB        26.2860   18.7010    3.4130 C.3   168  ALA168      0.0319
@<TRIPOS>BOND
     1   114   115    1
     2   115   116    1
     3   115   118    1
     4   117   116    2
     5   116   123   am
     6   125   126    2
     7   125   124    1
     8   119   118    1
     9   119   120    1
    10   108   109    1
    11   123   124    1
    12   103   104    2
    13   103   102    1
    14   110   111    2
    15   110   109    1
    16   124   127    1
    17   101   102    1
    18   109   112    1
    19   120   122   am
    20   120   121    2
    21   102   105    1
    22    95    94    1
    23    95    96    2
    24    94    93    1
    25    94    97    1
    26    99    97    1
    27    58    57    1
    28    58    59    1
    29    41    42    2
    30    41    40    1
    31    57    54    1
    32    98    97    1
    33    98   100    1
    34   112   113    1
    35   106   105    1
    36    61    59   ar
    37   105   107    1
    38    59    60   ar
    39    40    39    1
    40    40    43    1
    41    52    50   ar
    42    52    51   ar
    43    53    54    1
    44    50    48   ar
    45    51    49   ar
    46    54    55    1
    47    55    56    2
    48    48    47   ar
    49    48    46   ar
    50    49    46   ar
    51    47    45   ar
    52    46    44   ar
    53    45    44   ar
    54    44    43    1
    55    38    37    1
    56    88    87    2
    57    37    35   ar
    58    37    36   ar
    59    35    33   ar
    60    87    86    1
    61    84    83   ar
    62    84    82   ar
    63    91    90    1
    64    86    85    1
    65    86    89    1
    66    83    81   ar
    67    30    29    2
    68    36    34   ar
    69    82    80   ar
    70    12    14   ar
    71    12    10   ar
    72    33    32   ar
    73     9    10   ar
    74     9     7   ar
    75    62    63    1
    76    81    78   ar
    77    69    68    2
    78    14    13   ar
    79    10     8   ar
    80    90    89    1
    81    90    92    1
    82    66    63    1
    83    66    67    1
    84    80    78   ar
    85    80    79   ar
    86    34    32   ar
    87    29    28    1
    88    32    31    1
    89    68    70   am
    90    68    67    1
    91    78    76   ar
    92     7     6   ar
    93    64    63    1
    94    64    65    2
    95    79    77   ar
    96    28    31    1
    97    28    27    1
    98    13    11   ar
    99     8     6   ar
   100     8    11   ar
   101    76    77   ar
   102    76    75    1
   103     6     5    1
   104    75    72    1
   105     5     2    1
   106    72    71    1
   107    72    73    1
   108    26    25    1
   109    23    25   ar
   110    23    21   ar
   111     1     2    1
   112    74    73    2
   113    18    17    2
   114    25    24   ar
   115     2     3    1
   116    21    20   ar
   117     3     4    2
   118    17    16    1
   119    24    22   ar
   120    20    22   ar
   121    20    19    1
   122    16    19    1
   123    16    15    1
