@<TRIPOS>MOLECULE
tmp/2ofpB01.pdb
 119 110 0 0 0
SMALL
GASTEIGER

@<TRIPOS>ATOM
      1  N        -43.7230   18.0560    6.4730 N.3    99  ASN99      -0.1240
      2  CA       -43.4490   17.9150    5.0490 C.3    99  ASN99       0.1653
      3  C        -44.7290   17.7330    4.2690 C.2    99  ASN99       0.2266
      4  O        -45.7750   17.3270    4.8200 O.2    99  ASN99      -0.2867
      5  CB       -42.5390   16.7020    4.7770 C.3    99  ASN99       0.1155
      6  CG       -41.1450   16.8930    5.3210 C.2    99  ASN99       0.2627
      7  OD1      -40.6710   18.0070    5.4720 O.2    99  ASN99      -0.2716
      8  ND2      -40.4870   15.8070    5.6110 N.am   99  ASN99      -0.0877
      9  N        -39.1060   22.8810    7.6180 N.3   119  THR119     -0.1203
     10  CA       -37.8520   22.8860    8.3910 C.3   119  THR119      0.1994
     11  C        -36.8680   21.9320    7.7720 C.2   119  THR119      0.2619
     12  O        -37.2750   20.9450    7.1330 O.2   119  THR119     -0.2717
     13  CB       -38.0860   22.5530    9.8920 C.3   119  THR119      0.1784
     14  OG1      -36.9170   22.8870   10.6250 O.3   119  THR119     -0.2211
     15  CG2      -38.3620   21.0510   10.1020 C.3   119  THR119      0.0376
     16  N        -35.5780   22.2490    7.9060 N.am  120  THR120     -0.1938
     17  CA       -34.5160   21.3670    7.4170 C.3   120  THR120      0.2028
     18  C        -33.6480   20.8750    8.5750 C.2   120  THR120      0.2642
     19  O        -32.5810   20.3150    8.3570 O.2   120  THR120     -0.2714
     20  CB       -33.6110   22.0610    6.3460 C.3   120  THR120      0.1808
     21  OG1      -33.1690   23.3270    6.8540 O.3   120  THR120     -0.2208
     22  CG2      -34.3830   22.2700    5.0620 C.3   120  THR120      0.0379
     23  N        -34.0790   21.1430    9.8110 N.am  121  HIS121     -0.1959
     24  CA       -33.5390   20.4360   10.9640 C.3   121  HIS121      0.1787
     25  C        -33.7430   18.9550   10.6960 C.2   121  HIS121      0.2620
     26  O        -34.7430   18.5620   10.0660 O.2   121  HIS121     -0.2715
     27  CB       -34.2700   20.8280   12.2570 C.3   121  HIS121      0.0785
     28  CG       -33.7980   22.1200   12.8370 C.ar  121  HIS121      0.0821
     29  ND1      -32.7980   22.1890   13.7850 N.ar  121  HIS121     -0.2267
     30  CD2      -34.1920   23.3960   12.6060 C.ar  121  HIS121      0.1154
     31  CE1      -32.5790   23.4540   14.0940 C.ar  121  HIS121      0.1986
     32  NE2      -33.4330   24.2050   13.4180 N.ar  121  HIS121     -0.2212
     33  N        -32.8080   18.1470   11.1870 N.am  122  ALA122     -0.1977
     34  CA       -32.8660   16.6980   11.0160 C.3   122  ALA122      0.1597
     35  C        -32.8560   16.0680   12.4070 C.2   122  ALA122      0.2287
     36  O        -32.0040   16.4080   13.2260 O.2   122  ALA122     -0.2864
     37  CB       -31.6580   16.2180   10.1900 C.3   122  ALA122      0.0319
     38  N        -39.4770   23.0330   -0.6390 N.3   177  LYS177     -0.1245
     39  CA       -39.2920   21.9100    0.2640 C.3   177  LYS177      0.1561
     40  C        -39.9170   20.6290   -0.2860 C.2   177  LYS177      0.2260
     41  O        -39.3390   19.5420   -0.1400 O.2   177  LYS177     -0.2867
     42  CB       -39.8810   22.2250    1.6310 C.3   177  LYS177      0.0271
     43  CG       -38.8810   21.9450    2.7260 C.3   177  LYS177      0.0035
     44  CD       -38.7900   20.4970    3.0310 C.3   177  LYS177      0.0206
     45  CE       -37.5550   20.1860    3.8750 C.3   177  LYS177      0.1093
     46  NZ       -38.0330   19.3510    5.0410 N.3   177  LYS177     -0.1314
     47  N        -37.5140   18.9470   -2.4240 N.3   180  VAL180     -0.1231
     48  CA       -36.4860   18.2190   -1.6560 C.3   180  VAL180      0.1692
     49  C        -37.0530   16.8690   -1.1370 C.2   180  VAL180      0.2592
     50  O        -36.4180   15.8460   -1.2350 O.2   180  VAL180     -0.2718
     51  CB       -36.0230   19.0860   -0.4590 C.3   180  VAL180      0.0266
     52  CG1      -35.1800   18.2560    0.5220 C.3   180  VAL180      0.0020
     53  CG2      -35.2660   20.3430   -0.9550 C.3   180  VAL180      0.0020
     54  N        -38.2570   16.8910   -0.5620 N.am  181  ASN181     -0.1974
     55  CA       -38.8520   15.6800   -0.0240 C.3   181  ASN181      0.1688
     56  C        -39.3130   14.6560   -1.1040 C.2   181  ASN181      0.2292
     57  O        -39.2990   13.4850   -0.8430 O.2   181  ASN181     -0.2864
     58  CB       -39.9670   16.0470    0.9510 C.3   181  ASN181      0.1181
     59  CG       -39.4420   16.7420    2.1960 C.2   181  ASN181      0.2629
     60  OD1      -39.8850   17.8430    2.5440 O.2   181  ASN181     -0.2716
     61  ND2      -38.4800   16.1030    2.8780 N.am  181  ASN181     -0.0877
     62  N        -35.7550   13.0600   -1.4800 N.3   184  ILE184     -0.1231
     63  CA       -35.0640   12.3660   -0.3870 C.3   184  ILE184      0.1692
     64  C        -35.9250   11.2560    0.2140 C.2   184  ILE184      0.2592
     65  O        -35.4230   10.1690    0.5440 O.2   184  ILE184     -0.2718
     66  CB       -34.6340   13.3670    0.7400 C.3   184  ILE184      0.0266
     67  CG1      -33.5610   14.3260    0.2150 C.3   184  ILE184      0.0019
     68  CG2      -34.1990   12.6280    2.0340 C.3   184  ILE184      0.0020
     69  CD1      -33.1480   15.4410    1.1960 C.3   184  ILE184      0.0001
     70  N        -37.2090   11.5460    0.4010 N.am  185  ASN185     -0.1974
     71  CA       -38.0120   10.6730    1.2190 C.3   185  ASN185      0.1688
     72  C        -38.2510    9.2980    0.5820 C.2   185  ASN185      0.2292
     73  O        -37.8980    8.2940    1.2010 O.2   185  ASN185     -0.2864
     74  CB       -39.2810   11.3980    1.6940 C.3   185  ASN185      0.1181
     75  CG       -38.9540   12.5640    2.6170 C.2   185  ASN185      0.2629
     76  OD1      -38.0240   13.3130    2.3570 O.2   185  ASN185     -0.2716
     77  ND2      -39.7340   12.7430    3.6690 N.am  185  ASN185     -0.0877
     78  N        -29.4760    9.6880    4.3860 N.3   195  ASN195     -0.1240
     79  CA       -29.6080   10.6760    3.3210 C.3   195  ASN195      0.1653
     80  C        -28.3330   10.8080    2.4760 C.2   195  ASN195      0.2266
     81  O        -28.4080   11.0100    1.2700 O.2   195  ASN195     -0.2867
     82  CB       -29.9410   12.0640    3.9000 C.3   195  ASN195      0.1155
     83  CG       -31.3360   12.1630    4.4950 C.2   195  ASN195      0.2627
     84  OD1      -32.1040   11.1790    4.5630 O.2   195  ASN195     -0.2716
     85  ND2      -31.6920   13.3930    4.9250 N.am  195  ASN195     -0.0877
     86  N        -29.3790   20.1850    1.0040 N.3   235  VAL235     -0.1245
     87  CA       -30.0770   19.5490    2.1310 C.3   235  VAL235      0.1561
     88  C        -29.4880   18.1570    2.4400 C.2   235  VAL235      0.2260
     89  O        -29.3070   17.7990    3.6130 O.2   235  VAL235     -0.2867
     90  CB       -31.5920   19.4860    1.8700 C.3   235  VAL235      0.0252
     91  CG1      -32.2840   18.7040    2.9920 C.3   235  VAL235      0.0019
     92  CG2      -32.1540   20.9560    1.7130 C.3   235  VAL235      0.0019
     93  N        -27.7300   17.0320    5.9420 N.3   239  THR239     -0.1218
     94  CA       -28.5120   16.0340    6.7070 C.3   239  THR239      0.1862
     95  C        -28.0070   14.6410    6.3590 C.2   239  THR239      0.2287
     96  O        -28.7150   13.6510    6.5580 O.2   239  THR239     -0.2866
     97  CB       -30.0520   16.1250    6.4320 C.3   239  THR239      0.1770
     98  OG1      -30.3350   15.7700    5.0620 O.3   239  THR239     -0.2211
     99  CG2      -30.6070   17.5470    6.7360 C.3   239  THR239      0.0375
    100  N        -28.6650   11.6800    8.5660 N.3   242  ASN242     -0.1240
    101  CA       -30.0310   11.4100    8.9990 C.3   242  ASN242      0.1653
    102  C        -30.6000   10.1720    8.3420 C.2   242  ASN242      0.2266
    103  O        -30.1940    9.8160    7.2460 O.2   242  ASN242     -0.2867
    104  CB       -30.9810   12.5980    8.7830 C.3   242  ASN242      0.1155
    105  CG       -32.1430   12.5980    9.7720 C.2   242  ASN242      0.2627
    106  OD1      -32.0410   12.0390   10.8700 O.2   242  ASN242     -0.2716
    107  ND2      -33.2440   13.2260    9.3970 N.am  242  ASN242     -0.0877
    108  N        -34.1700    9.5560    7.0480 N.3   244  SER244     -0.1202
    109  CA       -35.2780   10.4680    6.6800 C.3   244  SER244      0.2020
    110  C        -36.5280   10.0540    7.4110 C.2   244  SER244      0.2619
    111  O        -36.6560    8.8910    7.8190 O.2   244  SER244     -0.2717
    112  CB       -35.5580   10.4910    5.1590 C.3   244  SER244      0.2103
    113  OG       -36.3220    9.3620    4.7550 O.3   244  SER244     -0.2182
    114  N        -37.4600   10.9930    7.5690 N.am  245  SER245     -0.1951
    115  CA       -38.6950   10.7130    8.2900 C.3   245  SER245      0.1924
    116  C        -39.4970    9.6070    7.5960 C.2   245  SER245      0.2314
    117  O        -40.2140    8.8420    8.2480 O.2   245  SER245     -0.2863
    118  CB       -39.5420   11.9930    8.3940 C.3   245  SER245      0.2116
    119  OG       -39.7930   12.5250    7.0920 O.3   245  SER245     -0.2180
@<TRIPOS>BOND
     1    47    48    1
     2    48    49    1
     3    48    51    1
     4    62    63    1
     5    50    49    2
     6    49    54   am
     7    56    57    2
     8    56    55    1
     9    53    51    1
    10    38    39    1
    11    54    55    1
    12    51    52    1
    13    63    64    1
    14    63    66    1
    15    40    41    2
    16    40    39    1
    17    55    58    1
    18    64    70   am
    19    64    65    2
    20    67    66    1
    21    67    69    1
    22    39    42    1
    23    70    71    1
    24    72    73    2
    25    72    71    1
    26    66    68    1
    27    58    59    1
    28    86    87    1
    29    71    74    1
    30    81    80    2
    31    42    43    1
    32    74    75    1
    33    92    90    1
    34    90    87    1
    35    90    91    1
    36    87    88    1
    37    59    60    2
    38    59    61   am
    39    76    75    2
    40    88    89    2
    41    80    79    1
    42    75    77   am
    43    43    44    1
    44    44    45    1
    45    79    82    1
    46    79    78    1
    47    45    46    1
    48    82    83    1
    49     3     4    2
    50     3     2    1
    51    83    84    2
    52    83    85   am
    53   113   112    1
    54     5     2    1
    55     5     6    1
    56     2     1    1
    57    98    97    1
    58    22    20    1
    59   112   109    1
    60     6     7    2
    61     6     8   am
    62    93    94    1
    63    20    21    1
    64    20    17    1
    65    95    96    2
    66    95    94    1
    67    97    94    1
    68    97    99    1
    69   109   108    1
    70   109   110    1
    71   119   118    1
    72    12    11    2
    73   103   102    2
    74   110   114   am
    75   110   111    2
    76    17    16    1
    77    17    18    1
    78   114   115    1
    79   116   117    2
    80   116   115    1
    81     9    10    1
    82    11    16   am
    83    11    10    1
    84   115   118    1
    85   102   101    1
    86    19    18    2
    87    10    13    1
    88   100   101    1
    89    18    23   am
    90   104   101    1
    91   104   105    1
    92   107   105   am
    93   105   106    2
    94    23    24    1
    95    13    15    1
    96    13    14    1
    97    26    25    2
    98    37    34    1
    99    25    24    1
   100    25    33   am
   101    24    27    1
   102    34    33    1
   103    34    35    1
   104    27    28    1
   105    35    36    2
   106    30    28   ar
   107    30    32   ar
   108    28    29   ar
   109    32    31   ar
   110    29    31   ar
