@<TRIPOS>MOLECULE
tmp/2ofuA00.pdb
 190 178 0 0 0
SMALL
GASTEIGER

@<TRIPOS>ATOM
      1  N         31.8190   29.6570   90.1620 N.3    21  GLU21      -0.1245
      2  CA        32.5520   30.9140   90.1090 C.3    21  GLU21       0.1567
      3  C         31.6330   32.1040   90.3390 C.2    21  GLU21       0.2260
      4  O         30.5780   32.2060   89.7130 O.2    21  GLU21      -0.2867
      5  CB        33.2320   31.0230   88.7460 C.3    21  GLU21       0.0388
      6  CG        34.3140   32.0620   88.6310 C.3    21  GLU21       0.1160
      7  CD        34.6130   32.3950   87.1910 C.2    21  GLU21       0.3649
      8  OE1       34.4200   31.5260   86.3230 O.co2  21  GLU21      -0.2457
      9  OE2       35.0470   33.5300   86.9210 O.co2  21  GLU21      -0.2457
     10  N         30.2850   35.6860   89.8950 N.3    23  LEU23      -0.1231
     11  CA        30.3210   36.7090   88.8530 C.3    23  LEU23       0.1693
     12  C         30.1460   38.1010   89.4480 C.2    23  LEU23       0.2592
     13  O         30.7970   39.0470   89.0100 O.2    23  LEU23      -0.2718
     14  CB        29.2210   36.4600   87.8220 C.3    23  LEU23       0.0284
     15  CG        29.2000   35.0650   87.1990 C.3    23  LEU23       0.0019
     16  CD1       27.9290   34.9230   86.3570 C.3    23  LEU23       0.0001
     17  CD2       30.4720   34.8260   86.3810 C.3    23  LEU23       0.0001
     18  N         29.2620   38.2250   90.4340 N.am   24  GLY24      -0.1957
     19  CA        29.0360   39.5180   91.0600 C.3    24  GLY24       0.1869
     20  C         28.6050   39.3780   92.5050 C.2    24  GLY24       0.2309
     21  O         28.0010   38.3640   92.8720 O.2    24  GLY24      -0.2863
     22  N         25.7780   36.5570   92.5580 N.3    31  VAL31      -0.1245
     23  CA        25.4090   35.8790   91.3300 C.3    31  VAL31       0.1561
     24  C         26.6010   35.0170   90.9700 C.2    31  VAL31       0.2260
     25  O         27.7400   35.4780   90.9730 O.2    31  VAL31      -0.2867
     26  CB        25.0980   36.8400   90.1640 C.3    31  VAL31       0.0252
     27  CG1       24.8330   36.0170   88.9160 C.3    31  VAL31       0.0019
     28  CG2       23.8610   37.6780   90.4710 C.3    31  VAL31       0.0019
     29  N         23.4920   30.3750   85.4320 N.3    43  ALA43      -0.1245
     30  CA        23.7990   31.5150   86.2780 C.3    43  ALA43       0.1562
     31  C         22.8580   31.4090   87.4710 C.2    43  ALA43       0.2260
     32  O         21.6730   31.1140   87.3210 O.2    43  ALA43      -0.2867
     33  CB        23.5650   32.8190   85.5310 C.3    43  ALA43       0.0290
     34  N         21.5160   33.3510   91.0250 N.3    45  LYS45      -0.1245
     35  CA        21.4320   34.5360   91.8600 C.3    45  LYS45       0.1561
     36  C         20.9240   34.0890   93.2260 C.2    45  LYS45       0.2260
     37  O         19.8860   33.4330   93.3200 O.2    45  LYS45      -0.2867
     38  CB        20.4630   35.5390   91.2480 C.3    45  LYS45       0.0271
     39  CG        20.2340   36.7650   92.0630 C.3    45  LYS45       0.0035
     40  CD        19.4030   37.7340   91.2690 C.3    45  LYS45       0.0206
     41  CE        19.0660   38.9500   92.0530 C.3    45  LYS45       0.1093
     42  NZ        18.4310   40.0040   91.2240 N.3    45  LYS45      -0.1314
     43  N         10.7690   39.0700   90.1690 N.3    60  GLU60      -0.1245
     44  CA        11.2980   39.1210   88.8210 C.3    60  GLU60       0.1567
     45  C         11.3410   37.7130   88.2150 C.2    60  GLU60       0.2260
     46  O         11.2180   37.5480   86.9970 O.2    60  GLU60      -0.2867
     47  CB        12.6870   39.8070   88.8230 C.3    60  GLU60       0.0388
     48  CG        13.8910   38.8690   88.6910 C.3    60  GLU60       0.1160
     49  CD        15.1880   39.6330   88.8400 C.2    60  GLU60       0.3649
     50  OE1       15.5820   40.3680   87.9230 O.co2  60  GLU60      -0.2457
     51  OE2       15.7970   39.5470   89.9100 O.co2  60  GLU60      -0.2457
     52  N          9.6060   36.5720   84.6770 N.3    64  MET64      -0.1245
     53  CA        10.3440   35.8420   83.6480 C.3    64  MET64       0.1570
     54  C          9.6410   34.5460   83.2560 C.2    64  MET64       0.2261
     55  O          9.8700   34.0160   82.1640 O.2    64  MET64      -0.2867
     56  CB        11.7650   35.5380   84.1170 C.3    64  MET64       0.0387
     57  CG        12.6360   36.7840   84.3370 C.3    64  MET64       0.0595
     58  SD        14.2240   36.3760   85.0880 S.3    64  MET64      -0.1393
     59  CE        15.2310   36.0690   83.6270 C.3    64  MET64       0.0692
     60  N         17.2560   36.6720   78.1370 N.3    73  VAL73      -0.1245
     61  CA        17.8580   35.6610   78.9960 C.3    73  VAL73       0.1561
     62  C         16.7380   34.8680   79.6700 C.2    73  VAL73       0.2260
     63  O         15.9050   35.4130   80.3920 O.2    73  VAL73      -0.2867
     64  CB        18.8090   36.3040   80.0490 C.3    73  VAL73       0.0252
     65  CG1       19.3040   35.2450   81.0350 C.3    73  VAL73       0.0019
     66  CG2       20.0010   36.9330   79.3430 C.3    73  VAL73       0.0019
     67  N         17.5570   32.1170   92.0930 N.3    86  ILE86      -0.1245
     68  CA        16.9250   32.3510   90.8050 C.3    86  ILE86       0.1561
     69  C         17.9930   31.8630   89.8310 C.2    86  ILE86       0.2260
     70  O         19.1040   32.3820   89.8230 O.2    86  ILE86      -0.2867
     71  CB        16.6610   33.8450   90.5170 C.3    86  ILE86       0.0252
     72  CG1       15.5880   34.3940   91.4570 C.3    86  ILE86       0.0019
     73  CG2       16.2310   34.0190   89.0650 C.3    86  ILE86       0.0019
     74  CD1       15.3010   35.8750   91.2480 C.3    86  ILE86       0.0001
     75  N         19.1890   31.0870   85.8490 N.3    88  THR88      -0.1203
     76  CA        18.9190   31.5000   84.4800 C.3    88  THR88       0.1994
     77  C         19.8790   30.9230   83.4550 C.2    88  THR88       0.2618
     78  O         20.9080   30.3270   83.7780 O.2    88  THR88      -0.2717
     79  CB        19.0330   33.0350   84.3120 C.3    88  THR88       0.1784
     80  OG1       20.4200   33.3890   84.2390 O.3    88  THR88      -0.2211
     81  CG2       18.3970   33.7640   85.4880 C.3    88  THR88       0.0376
     82  N         19.5130   31.1490   82.2010 N.am   89  GLU89      -0.1965
     83  CA        20.3030   30.7560   81.0520 C.3    89  GLU89       0.1733
     84  C         21.6530   31.4640   81.2270 C.2    89  GLU89       0.2616
     85  O         21.7000   32.6000   81.6800 O.2    89  GLU89      -0.2715
     86  CB        19.5930   31.2520   79.7880 C.3    89  GLU89       0.0429
     87  CG        20.4200   31.2740   78.5280 C.3    89  GLU89       0.1163
     88  CD        19.6110   31.7370   77.3240 C.2    89  GLU89       0.3649
     89  OE1       18.7940   32.6710   77.4810 O.co2  89  GLU89      -0.2457
     90  OE2       19.7980   31.1740   76.2240 O.co2  89  GLU89      -0.2457
     91  N         22.7370   30.7910   80.8610 N.am   90  TYR90      -0.1960
     92  CA        24.0770   31.3630   80.9900 C.3    90  TYR90       0.1771
     93  C         24.6400   32.0000   79.7110 C.2    90  TYR90       0.2619
     94  O         24.5560   31.4230   78.6320 O.2    90  TYR90      -0.2715
     95  CB        25.0520   30.2950   81.4840 C.3    90  TYR90       0.0574
     96  CG        26.4170   30.8450   81.8070 C.ar   90  TYR90      -0.0198
     97  CD1       26.6010   31.6900   82.9020 C.ar   90  TYR90      -0.0009
     98  CD2       27.5240   30.5420   81.0120 C.ar   90  TYR90      -0.0009
     99  CE1       27.8540   32.2200   83.1970 C.ar   90  TYR90       0.0417
    100  CE2       28.7770   31.0650   81.2980 C.ar   90  TYR90       0.0417
    101  CZ        28.9350   31.9050   82.3940 C.ar   90  TYR90       0.1957
    102  OH        30.1730   32.4210   82.7010 O.3    90  TYR90      -0.2866
    103  N         25.2190   33.1900   79.8550 N.am   91  MET91      -0.1963
    104  CA        25.8110   33.9270   78.7330 C.3    91  MET91       0.1736
    105  C         27.3320   33.9760   78.9490 C.2    91  MET91       0.2616
    106  O         27.8280   34.6760   79.8320 O.2    91  MET91      -0.2715
    107  CB        25.2500   35.3580   78.6700 C.3    91  MET91       0.0427
    108  CG        23.7080   35.4660   78.6130 C.3    91  MET91       0.0599
    109  SD        22.9550   34.5220   77.2540 S.3    91  MET91      -0.1393
    110  CE        23.5900   35.3710   75.8130 C.3    91  MET91       0.0692
    111  N         28.0680   33.2450   78.1200 N.am   92  GLU92      -0.1963
    112  CA        29.5150   33.1600   78.2510 C.3    92  GLU92       0.1733
    113  C         30.3250   34.4570   78.1910 C.2    92  GLU92       0.2616
    114  O         31.2790   34.6130   78.9480 O.2    92  GLU92      -0.2715
    115  CB        30.0740   32.1780   77.2160 C.3    92  GLU92       0.0429
    116  CG        31.5350   31.7650   77.4940 C.3    92  GLU92       0.1163
    117  CD        31.6710   30.9240   78.7600 C.2    92  GLU92       0.3649
    118  OE1       31.0910   29.8110   78.8050 O.co2  92  GLU92      -0.2457
    119  OE2       32.3500   31.3770   79.7080 O.co2  92  GLU92      -0.2457
    120  N         29.9620   35.3930   77.3250 N.am   93  ASN93      -0.1958
    121  CA        30.7620   36.6040   77.2400 C.3    93  ASN93       0.1819
    122  C         30.3630   37.7960   78.0960 C.2    93  ASN93       0.2622
    123  O         30.7600   38.9120   77.8140 O.2    93  ASN93      -0.2715
    124  CB        30.9140   37.0370   75.7870 C.3    93  ASN93       0.1195
    125  CG        31.9140   36.1810   75.0420 C.2    93  ASN93       0.2630
    126  OD1       33.0010   35.9090   75.5500 O.2    93  ASN93      -0.2716
    127  ND2       31.5590   35.7550   73.8420 N.am   93  ASN93      -0.0877
    128  N         29.5910   37.5450   79.1460 N.am   94  GLY94      -0.1940
    129  CA        29.1890   38.6000   80.0620 C.3    94  GLY94       0.2014
    130  C         28.3510   39.7440   79.5230 C.2    94  GLY94       0.2639
    131  O         27.6120   39.5880   78.5520 O.2    94  GLY94      -0.2714
    132  N         28.4500   40.8980   80.1770 N.am   95  SER95      -0.1949
    133  CA        27.6960   42.0700   79.7600 C.3    95  SER95       0.1924
    134  C         28.3330   42.6940   78.5290 C.2    95  SER95       0.2314
    135  O         29.5460   42.6380   78.3450 O.2    95  SER95      -0.2863
    136  CB        27.6380   43.1030   80.8900 C.3    95  SER95       0.2116
    137  OG        28.9240   43.6140   81.1880 O.3    95  SER95      -0.2180
    138  N         31.0530   45.2990   79.1360 N.3    98  ASP98      -0.1239
    139  CA        32.3760   44.7680   79.4700 C.3    98  ASP98       0.1674
    140  C         33.0370   44.1220   78.2550 C.2    98  ASP98       0.2266
    141  O         34.2010   44.3890   77.9600 O.2    98  ASP98      -0.2867
    142  CB        32.2910   43.7350   80.6050 C.3    98  ASP98       0.1410
    143  CG        31.8950   44.3500   81.9340 C.2    98  ASP98       0.3668
    144  OD1       32.2490   45.5210   82.1680 O.co2  98  ASP98      -0.2456
    145  OD2       31.2490   43.6550   82.7510 O.co2  98  ASP98      -0.2456
    146  N         24.8430   47.5910   80.1990 N.3   140  ALA140     -0.1231
    147  CA        25.1780   46.7650   81.3530 C.3   140  ALA140      0.1694
    148  C         24.2520   45.5510   81.4560 C.2   140  ALA140      0.2592
    149  O         24.6740   44.4810   81.9080 O.2   140  ALA140     -0.2718
    150  CB        25.0940   47.5930   82.6470 C.3   140  ALA140      0.0304
    151  N         22.9980   45.7150   81.0310 N.am  141  ASN141     -0.1974
    152  CA        22.0260   44.6340   81.1090 C.3   141  ASN141      0.1688
    153  C         21.7500   43.8660   79.8220 C.2   141  ASN141      0.2292
    154  O         20.6980   43.2300   79.6650 O.2   141  ASN141     -0.2864
    155  CB        20.7200   45.1490   81.7170 C.3   141  ASN141      0.1181
    156  CG        20.8920   45.5580   83.1660 C.2   141  ASN141      0.2629
    157  OD1       21.5890   44.8850   83.9290 O.2   141  ASN141     -0.2716
    158  ND2       20.2640   46.6630   83.5520 N.am  141  ASN141     -0.0877
    159  N         23.4630   40.9080   77.7020 N.3   143  LEU143     -0.1245
    160  CA        24.4940   39.8890   77.8500 C.3   143  LEU143      0.1561
    161  C         24.8780   39.3150   76.4900 C.2   143  LEU143      0.2260
    162  O         24.0560   39.2600   75.5770 O.2   143  LEU143     -0.2867
    163  CB        24.0070   38.7860   78.7990 C.3   143  LEU143      0.0270
    164  CG        23.4050   39.2870   80.1250 C.3   143  LEU143      0.0019
    165  CD1       23.0220   38.1210   81.0130 C.3   143  LEU143      0.0001
    166  CD2       24.4140   40.1540   80.8500 C.3   143  LEU143      0.0001
    167  N         18.7170   41.1630   79.6760 N.3   153  ALA153     -0.1231
    168  CA        18.7230   40.5950   81.0210 C.3   153  ALA153      0.1694
    169  C         18.2700   41.6000   82.0810 C.2   153  ALA153      0.2592
    170  O         18.0300   42.7760   81.7930 O.2   153  ALA153     -0.2718
    171  CB        20.1340   40.0780   81.3680 C.3   153  ALA153      0.0304
    172  N         18.1790   41.1060   83.3130 N.am  154  ASP154     -0.1960
    173  CA        17.7900   41.8880   84.4860 C.3   154  ASP154      0.1840
    174  C         16.4080   42.5290   84.3770 C.2   154  ASP154      0.2622
    175  O         16.2790   43.7080   84.0630 O.2   154  ASP154     -0.2715
    176  CB        18.8230   42.9820   84.7770 C.3   154  ASP154      0.1450
    177  CG        18.6740   43.5800   86.1860 C.2   154  ASP154      0.3671
    178  OD1       17.5550   43.5830   86.7420 O.co2 154  ASP154     -0.2456
    179  OD2       19.6830   44.0690   86.7300 O.co2 154  ASP154     -0.2456
    180  N         15.3810   41.7420   84.6660 N.am  155  PHE155     -0.1974
    181  CA        14.0010   42.2130   84.6150 C.3   155  PHE155      0.1639
    182  C         13.5170   42.7100   85.9850 C.2   155  PHE155      0.2290
    183  O         12.3200   42.7460   86.2590 O.2   155  PHE155     -0.2864
    184  CB        13.1270   41.0700   84.0870 C.3   155  PHE155      0.0560
    185  CG        13.5510   40.5920   82.7240 C.ar  155  PHE155     -0.0200
    186  CD1       13.1230   41.2510   81.5760 C.ar  155  PHE155     -0.0042
    187  CD2       14.4530   39.5400   82.5940 C.ar  155  PHE155     -0.0042
    188  CE1       13.5960   40.8830   80.3200 C.ar  155  PHE155     -0.0003
    189  CE2       14.9350   39.1620   81.3370 C.ar  155  PHE155     -0.0003
    190  CZ        14.5060   39.8320   80.2000 C.ar  155  PHE155     -0.0000
@<TRIPOS>BOND
     1   127   125   am
     2   125   126    2
     3   125   124    1
     4   162   161    2
     5   124   121    1
     6   110   109    1
     7    90    88   ar
     8   161   160    1
     9   115   116    1
    10   115   112    1
    11   121   120    1
    12   121   122    1
    13   109   108    1
    14    88    89   ar
    15    88    87    1
    16   120   113   am
    17   116   117    1
    18   159   160    1
    19   123   122    2
    20   160   163    1
    21   141   140    2
    22   122   128   am
    23   111   112    1
    24   111   105   am
    25    60    61    1
    26   113   112    1
    27   113   114    2
    28   140   139    1
    29   135   134    2
    30    87    86    1
    31   134   133    1
    32   131   130    2
    33   108   107    1
    34    94    93    2
    35   107   104    1
    36   104   105    1
    37   104   103    1
    38   117   118   ar
    39   117   119   ar
    40   163   164    1
    41   105   106    2
    42    61    62    1
    43    61    64    1
    44   138   139    1
    45   128   129    1
    46    66    64    1
    47   139   142    1
    48   130   129    1
    49   130   132   am
    50   154   153    2
    51    62    63    2
    52   167   168    1
    53    93   103   am
    54    93    92    1
    55   133   132    1
    56   133   136    1
    57    86    83    1
    58   153   152    1
    59    64    65    1
    60   164   166    1
    61   164   165    1
    62   146   147    1
    63   190   188   ar
    64   190   189   ar
    65   188   186   ar
    66   142   143    1
    67    91    92    1
    68    91    84   am
    69   136   137    1
    70    92    95    1
    71    98   100   ar
    72    98    96   ar
    73   168   171    1
    74   168   169    1
    75   151   152    1
    76   151   148   am
    77    83    84    1
    78    83    82    1
    79   152   155    1
    80    84    85    2
    81   100   101   ar
    82   189   187   ar
    83   147   148    1
    84   147   150    1
    85   148   149    2
    86    95    96    1
    87   186   185   ar
    88   155   156    1
    89   170   169    2
    90    96    97   ar
    91   143   144   ar
    92   143   145   ar
    93   169   172   am
    94    55    54    2
    95    82    77   am
    96   101   102    1
    97   101    99   ar
    98   187   185   ar
    99   185   184    1
   100    97    99   ar
   101   156   158   am
   102   156   157    2
   103    54    53    1
   104   172   173    1
   105    77    78    2
   106    77    76    1
   107    59    58    1
   108    53    56    1
   109    53    52    1
   110   175   174    2
   111   184   181    1
   112    56    57    1
   113    80    79    1
   114    79    76    1
   115    79    81    1
   116    57    58    1
   117   174   173    1
   118   174   180   am
   119    76    75    1
   120   173   176    1
   121   181   180    1
   122   181   182    1
   123   176   177    1
   124    29    30    1
   125    33    30    1
   126   182   183    2
   127   177   179   ar
   128   177   178   ar
   129    30    31    1
   130     8     7   ar
   131    16    15    1
   132    17    15    1
   133     9     7   ar
   134    46    45    2
   135     7     6    1
   136    15    14    1
   137    32    31    2
   138    14    11    1
   139    50    49   ar
   140    45    44    1
   141     6     5    1
   142    48    47    1
   143    48    49    1
   144     5     2    1
   145    44    47    1
   146    44    43    1
   147    49    51   ar
   148    11    12    1
   149    11    10    1
   150    27    26    1
   151    13    12    2
   152    73    71    1
   153    12    18   am
   154     4     3    2
   155    70    69    2
   156    69    68    1
   157     2     1    1
   158     2     3    1
   159    26    28    1
   160    26    23    1
   161    18    19    1
   162    71    68    1
   163    71    72    1
   164    68    67    1
   165    24    25    2
   166    24    23    1
   167    34    35    1
   168    19    20    1
   169    42    41    1
   170    74    72    1
   171    38    35    1
   172    38    39    1
   173    40    41    1
   174    40    39    1
   175    23    22    1
   176    35    36    1
   177    20    21    2
   178    36    37    2
