@<TRIPOS>MOLECULE
tmp/2ofvB00.pdb
 210 198 0 0 0
SMALL
GASTEIGER

@<TRIPOS>ATOM
      1  N        114.1310   54.6880   25.0680 N.3    20  LEU20      -0.1245
      2  CA       115.1320   53.6790   24.7270 C.3    20  LEU20       0.1561
      3  C        116.4730   53.9890   25.3640 C.2    20  LEU20       0.2260
      4  O        117.3390   53.1260   25.4800 O.2    20  LEU20      -0.2867
      5  CB       115.3070   53.6040   23.2140 C.3    20  LEU20       0.0270
      6  CG       114.0380   53.4760   22.3650 C.3    20  LEU20       0.0019
      7  CD1      114.4420   53.4680   20.9070 C.3    20  LEU20       0.0001
      8  CD2      113.2750   52.2140   22.7110 C.3    20  LEU20       0.0001
      9  N        116.1800   59.1830   24.0190 N.3    28  VAL28      -0.1245
     10  CA       115.8120   58.5450   22.7730 C.3    28  VAL28       0.1561
     11  C        114.5520   57.7560   23.0750 C.2    28  VAL28       0.2260
     12  O        114.5090   56.9970   24.0390 O.2    28  VAL28      -0.2867
     13  CB       116.8930   57.5810   22.2920 C.3    28  VAL28       0.0252
     14  CG1      116.4410   56.8980   21.0130 C.3    28  VAL28       0.0019
     15  CG2      118.1930   58.3320   22.0790 C.3    28  VAL28       0.0019
     16  N        111.6620   56.6840   15.6430 N.3    40  ALA40      -0.1231
     17  CA       112.5600   56.8110   16.7700 C.3    40  ALA40       0.1694
     18  C        112.6700   58.3190   16.9390 C.2    40  ALA40       0.2592
     19  O        112.7600   59.0610   15.9450 O.2    40  ALA40      -0.2718
     20  CB       113.9060   56.2130   16.4570 C.3    40  ALA40       0.0304
     21  N        112.6470   58.7720   18.1830 N.am   41  VAL41      -0.1966
     22  CA       112.6960   60.1870   18.4710 C.3    41  VAL41       0.1727
     23  C        113.7720   60.5550   19.4800 C.2    41  VAL41       0.2616
     24  O        113.8620   59.9740   20.5710 O.2    41  VAL41      -0.2715
     25  CB       111.3490   60.6900   19.0380 C.3    41  VAL41       0.0290
     26  CG1      111.3900   62.2040   19.2090 C.3    41  VAL41       0.0023
     27  CG2      110.1900   60.2600   18.1310 C.3    41  VAL41       0.0023
     28  N        114.5840   61.5350   19.1120 N.am   42  LYS42      -0.1977
     29  CA       115.6080   61.9980   20.0180 C.3    42  LYS42       0.1596
     30  C        115.1320   63.3570   20.5180 C.2    42  LYS42       0.2287
     31  O        114.8140   64.2480   19.7170 O.2    42  LYS42      -0.2864
     32  CB       116.9560   62.1160   19.2970 C.3    42  LYS42       0.0298
     33  CG       118.1270   62.2050   20.2490 C.3    42  LYS42       0.0038
     34  CD       119.4660   62.4170   19.5730 C.3    42  LYS42       0.0206
     35  CE       120.1240   61.1040   19.1500 C.3    42  LYS42       0.1093
     36  NZ       121.5810   61.2940   18.8180 N.3    42  LYS42      -0.1314
     37  N        122.8700   68.5190   14.2880 N.3    52  GLU52      -0.1245
     38  CA       122.9350   67.0630   14.1570 C.3    52  GLU52       0.1567
     39  C        122.0570   66.6460   12.9830 C.2    52  GLU52       0.2260
     40  O        122.4360   65.8020   12.1870 O.2    52  GLU52      -0.2867
     41  CB       122.4420   66.3560   15.4330 C.3    52  GLU52       0.0388
     42  CG       122.5410   64.8420   15.3550 C.3    52  GLU52       0.1160
     43  CD       122.0940   64.1390   16.6340 C.2    52  GLU52       0.3649
     44  OE1      122.1160   64.7800   17.7070 O.co2  52  GLU52      -0.2457
     45  OE2      121.7400   62.9390   16.5610 O.co2  52  GLU52      -0.2457
     46  N        123.6940   67.4440    9.6800 N.3    55  LEU55      -0.1231
     47  CA       124.7840   66.5060    9.4810 C.3    55  LEU55       0.1693
     48  C        124.2380   65.1910    8.9280 C.2    55  LEU55       0.2591
     49  O        124.7600   64.6550    7.9580 O.2    55  LEU55      -0.2718
     50  CB       125.5050   66.2440   10.8000 C.3    55  LEU55       0.0284
     51  CG       126.7480   65.3510   10.6950 C.3    55  LEU55       0.0019
     52  CD1      127.8680   66.1230   10.0230 C.3    55  LEU55       0.0001
     53  CD2      127.1740   64.8990   12.0820 C.3    55  LEU55       0.0001
     54  N        123.1870   64.6830    9.5590 N.am   56  MET56      -0.1979
     55  CA       122.5590   63.4430    9.1450 C.3    56  MET56       0.1605
     56  C        122.0720   63.5350    7.6990 C.2    56  MET56       0.2287
     57  O        122.2670   62.6140    6.9170 O.2    56  MET56      -0.2864
     58  CB       121.3920   63.1210   10.0790 C.3    56  MET56       0.0413
     59  CG       121.8080   62.8290   11.5230 C.3    56  MET56       0.0598
     60  SD       120.3950   62.6970   12.6340 S.3    56  MET56      -0.1393
     61  CE       119.8110   61.0500   12.2250 C.3    56  MET56       0.0692
     62  N        124.9290   63.3910    5.4380 N.3    59  LEU59      -0.1245
     63  CA       125.5600   62.0820    5.4020 C.3    59  LEU59       0.1561
     64  C        124.5990   60.9990    4.9280 C.2    59  LEU59       0.2260
     65  O        124.9060   59.8130    5.0050 O.2    59  LEU59      -0.2867
     66  CB       126.0940   61.7190    6.7860 C.3    59  LEU59       0.0270
     67  CG       127.2570   62.5810    7.2720 C.3    59  LEU59       0.0019
     68  CD1      127.5900   62.2460    8.7170 C.3    59  LEU59       0.0001
     69  CD2      128.4570   62.3590    6.3640 C.3    59  LEU59       0.0001
     70  N        123.6460   54.4500    6.8200 N.3    64  LEU64      -0.1231
     71  CA       123.5370   55.3740    7.9490 C.3    64  LEU64       0.1693
     72  C        122.0620   55.5020    8.2800 C.2    64  LEU64       0.2591
     73  O        121.2260   55.5560    7.3750 O.2    64  LEU64      -0.2718
     74  CB       124.0920   56.7640    7.6070 C.3    64  LEU64       0.0284
     75  CG       125.5460   57.0840    8.0070 C.3    64  LEU64       0.0019
     76  CD1      126.5080   56.2780    7.1460 C.3    64  LEU64       0.0001
     77  CD2      125.8530   58.5870    7.8320 C.3    64  LEU64       0.0001
     78  N        121.7430   55.5570    9.5670 N.am   65  VAL65      -0.1980
     79  CA       120.3550   55.6860    9.9800 C.3    65  VAL65       0.1595
     80  C        119.7430   56.8850    9.2490 C.2    65  VAL65       0.2287
     81  O        120.3280   57.9630    9.1820 O.2    65  VAL65      -0.2864
     82  CB       120.2400   55.8430   11.5160 C.3    65  VAL65       0.0276
     83  CG1      120.8980   57.1400   11.9810 C.3    65  VAL65       0.0022
     84  CG2      118.7830   55.7690   11.9260 C.3    65  VAL65       0.0022
     85  N        114.5590   65.0140   16.9220 N.3    78  ILE78      -0.1245
     86  CA       115.1690   64.5280   15.7070 C.3    78  ILE78       0.1561
     87  C        114.4620   63.1830   15.5190 C.2    78  ILE78       0.2260
     88  O        114.5780   62.2760   16.3610 O.2    78  ILE78      -0.2867
     89  CB       116.6930   64.3570   15.8480 C.3    78  ILE78       0.0252
     90  CG1      117.3500   65.7410   15.9640 C.3    78  ILE78       0.0019
     91  CG2      117.2440   63.6180   14.6470 C.3    78  ILE78       0.0019
     92  CD1      118.8800   65.7420   15.9620 C.3    78  ILE78       0.0001
     93  N        113.6240   59.7280   13.2520 N.3    80  THR80      -0.1203
     94  CA       114.2180   58.8290   12.2680 C.3    80  THR80       0.1994
     95  C        113.3920   57.5670   12.1140 C.2    80  THR80       0.2618
     96  O        112.4340   57.3380   12.8570 O.2    80  THR80      -0.2717
     97  CB       115.6460   58.3690   12.6850 C.3    80  THR80       0.1784
     98  OG1      115.5580   57.5210   13.8440 O.3    80  THR80      -0.2211
     99  CG2      116.5450   59.5660   12.9870 C.3    80  THR80       0.0376
    100  N        113.7910   56.7520   11.1430 N.am   81  GLU81      -0.1965
    101  CA       113.1500   55.4690   10.9000 C.3    81  GLU81       0.1733
    102  C        113.4050   54.6470   12.1580 C.2    81  GLU81       0.2616
    103  O        114.3480   54.9150   12.8990 O.2    81  GLU81      -0.2715
    104  CB       113.8140   54.7660    9.7090 C.3    81  GLU81       0.0429
    105  CG       115.3450   54.7600    9.8240 C.3    81  GLU81       0.1163
    106  CD       116.0690   53.9150    8.7860 C.2    81  GLU81       0.3649
    107  OE1      117.2990   54.0480    8.6820 O.co2  81  GLU81      -0.2457
    108  OE2      115.4280   53.1170    8.0770 O.co2  81  GLU81      -0.2457
    109  N        112.5730   53.6480   12.3940 N.am   82  TYR82      -0.1960
    110  CA       112.7530   52.7850   13.5490 C.3    82  TYR82       0.1771
    111  C        113.2870   51.4340   13.0930 C.2    82  TYR82       0.2619
    112  O        112.7240   50.7860   12.2090 O.2    82  TYR82      -0.2715
    113  CB       111.4420   52.5580   14.2900 C.3    82  TYR82       0.0574
    114  CG       111.6600   51.8120   15.5740 C.ar   82  TYR82      -0.0198
    115  CD1      112.1420   52.4720   16.7030 C.ar   82  TYR82      -0.0009
    116  CD2      111.4470   50.4270   15.6460 C.ar   82  TYR82      -0.0009
    117  CE1      112.4120   51.7860   17.8680 C.ar   82  TYR82       0.0417
    118  CE2      111.7160   49.7230   16.8130 C.ar   82  TYR82       0.0417
    119  CZ       112.1970   50.4120   17.9220 C.ar   82  TYR82       0.1957
    120  OH       112.4330   49.7370   19.0820 O.3    82  TYR82      -0.2866
    121  N        114.3810   51.0100   13.7010 N.am   83  MET83      -0.1977
    122  CA       114.9730   49.7250   13.3630 C.3    83  MET83       0.1605
    123  C        114.4270   48.7220   14.3830 C.2    83  MET83       0.2287
    124  O        114.7360   48.8250   15.5610 O.2    83  MET83      -0.2864
    125  CB       116.4940   49.8360   13.4680 C.3    83  MET83       0.0413
    126  CG       117.0630   50.9430   12.5990 C.3    83  MET83       0.0598
    127  SD       116.9930   50.5010   10.8680 S.3    83  MET83      -0.1393
    128  CE       118.5040   49.7400   10.6720 C.3    83  MET83       0.0692
    129  N        116.8490   46.9910   16.9420 N.3    86  GLY86      -0.1225
    130  CA       117.6840   47.8330   17.7850 C.3    86  GLY86       0.1811
    131  C        119.1730   47.8050   17.4960 C.2    86  GLY86       0.2280
    132  O        119.5910   47.6300   16.3460 O.2    86  GLY86      -0.2866
    133  N        131.6420   58.0740    5.5540 N.3   119  ILE119     -0.1245
    134  CA       131.9420   59.0880    6.5510 C.3   119  ILE119      0.1561
    135  C        133.3500   59.6270    6.2540 C.2   119  ILE119      0.2260
    136  O        133.6020   60.8280    6.3230 O.2   119  ILE119     -0.2867
    137  CB       131.8520   58.4750    7.9520 C.3   119  ILE119      0.0252
    138  CG1      130.3770   58.4340    8.3690 C.3   119  ILE119      0.0019
    139  CG2      132.7330   59.2350    8.9360 C.3   119  ILE119      0.0019
    140  CD1      130.1090   57.6980    9.6560 C.3   119  ILE119      0.0001
    141  N        134.0580   63.4340    7.7120 N.3   124  TYR124     -0.1241
    142  CA       133.4110   63.4910    9.0100 C.3   124  TYR124      0.1605
    143  C        134.2060   62.5900    9.9440 C.2   124  TYR124      0.2264
    144  O        135.0190   61.7780    9.4940 O.2   124  TYR124     -0.2867
    145  CB       131.9690   63.0000    8.9300 C.3   124  TYR124      0.0534
    146  CG       131.2600   63.0190   10.2630 C.ar  124  TYR124     -0.0201
    147  CD1      131.0060   64.2220   10.9200 C.ar  124  TYR124     -0.0009
    148  CD2      130.8470   61.8320   10.8710 C.ar  124  TYR124     -0.0009
    149  CE1      130.3550   64.2450   12.1500 C.ar  124  TYR124      0.0417
    150  CE2      130.1960   61.8440   12.0950 C.ar  124  TYR124      0.0417
    151  CZ       129.9520   63.0480   12.7290 C.ar  124  TYR124      0.1957
    152  OH       129.3020   63.0620   13.9320 O.3   124  TYR124     -0.2866
    153  N        133.3490   60.1740   13.3490 N.3   126  HIS126     -0.1241
    154  CA       132.3260   59.6520   14.2510 C.3   126  HIS126      0.1621
    155  C        132.6140   59.8260   15.7460 C.2   126  HIS126      0.2264
    156  O        131.7730   60.3480   16.4910 O.2   126  HIS126     -0.2867
    157  CB       132.0930   58.1770   13.9630 C.3   126  HIS126      0.0745
    158  CG       130.8440   57.6470   14.5790 C.ar  126  HIS126      0.0817
    159  ND1      130.6850   57.5000   15.9400 N.ar  126  HIS126     -0.2268
    160  CD2      129.6700   57.2780   14.0180 C.ar  126  HIS126      0.1154
    161  CE1      129.4620   57.0680   16.1910 C.ar  126  HIS126      0.1986
    162  NE2      128.8240   56.9260   15.0430 N.ar  126  HIS126     -0.2212
    163  N        122.8150   50.1420   14.3840 N.3   135  LEU135     -0.1245
    164  CA       121.4210   49.7020   14.3550 C.3   135  LEU135      0.1561
    165  C        121.2310   48.5650   13.3510 C.2   135  LEU135      0.2260
    166  O        121.9020   48.5240   12.3270 O.2   135  LEU135     -0.2867
    167  CB       120.5170   50.8800   13.9900 C.3   135  LEU135      0.0270
    168  CG       119.8180   51.7040   15.0840 C.3   135  LEU135      0.0019
    169  CD1      120.3640   51.4480   16.4510 C.3   135  LEU135      0.0001
    170  CD2      119.9360   53.1710   14.7170 C.3   135  LEU135      0.0001
    171  N        124.9160   52.7710   10.6310 N.3   144  ILE144     -0.1231
    172  CA       125.6710   53.5460   11.5930 C.3   144  ILE144      0.1692
    173  C        124.7880   54.6300   12.2080 C.2   144  ILE144      0.2592
    174  O        123.9880   55.2640   11.5160 O.2   144  ILE144     -0.2718
    175  CB       126.9060   54.1860   10.9080 C.3   144  ILE144      0.0266
    176  CG1      127.8660   53.0730   10.4610 C.3   144  ILE144      0.0019
    177  CG2      127.5790   55.1960   11.8510 C.3   144  ILE144      0.0020
    178  CD1      129.0880   53.5460    9.6850 C.3   144  ILE144      0.0001
    179  N        124.9320   54.8240   13.5140 N.am  145  ALA145     -0.1966
    180  CA       124.1660   55.8390   14.2340 C.3   145  ALA145      0.1728
    181  C        125.0270   56.3860   15.3640 C.2   145  ALA145      0.2616
    182  O        126.1870   56.0170   15.4870 O.2   145  ALA145     -0.2715
    183  CB       122.8840   55.2390   14.7970 C.3   145  ALA145      0.0334
    184  N        124.4600   57.2620   16.1840 N.am  146  ASP146     -0.1957
    185  CA       125.1860   57.8550   17.3050 C.3   146  ASP146      0.1840
    186  C        124.1230   58.3770   18.2550 C.2   146  ASP146      0.2622
    187  O        123.4800   59.3920   17.9790 O.2   146  ASP146     -0.2715
    188  CB       126.0660   58.9970   16.7950 C.3   146  ASP146      0.1450
    189  CG       126.8500   59.6800   17.9030 C.2   146  ASP146      0.3671
    190  OD1      127.9080   60.2560   17.5710 O.co2 146  ASP146     -0.2456
    191  OD2      126.4060   59.6500   19.0810 O.co2 146  ASP146     -0.2456
    192  N        123.9230   57.6820   19.3690 N.am  147  PHE147     -0.1974
    193  CA       122.8920   58.0970   20.3060 C.3   147  PHE147      0.1639
    194  C        123.1800   57.8030   21.7700 C.2   147  PHE147      0.2290
    195  O        122.2580   57.5990   22.5510 O.2   147  PHE147     -0.2864
    196  CB       121.5480   57.4690   19.9060 C.3   147  PHE147      0.0560
    197  CG       121.5750   55.9620   19.7880 C.ar  147  PHE147     -0.0200
    198  CD1      121.0860   55.1520   20.8120 C.ar  147  PHE147     -0.0042
    199  CD2      122.0660   55.3580   18.6380 C.ar  147  PHE147     -0.0042
    200  CE1      121.0810   53.7650   20.6840 C.ar  147  PHE147     -0.0003
    201  CE2      122.0650   53.9770   18.5020 C.ar  147  PHE147     -0.0003
    202  CZ       121.5740   53.1770   19.5230 C.ar  147  PHE147     -0.0000
    203  N        126.9880   66.5720   19.3910 N.3   153  ILE153     -0.1245
    204  CA       127.5380   66.2400   18.0870 C.3   153  ILE153      0.1561
    205  C        127.8910   67.5580   17.4210 C.2   153  ILE153      0.2260
    206  O        127.1730   68.5440   17.5640 O.2   153  ILE153     -0.2867
    207  CB       126.5170   65.4800   17.1950 C.3   153  ILE153      0.0252
    208  CG1      126.0910   64.1750   17.8790 C.3   153  ILE153      0.0019
    209  CG2      127.1380   65.1870   15.8290 C.3   153  ILE153      0.0019
    210  CD1      127.2470   63.2760   18.2480 C.3   153  ILE153      0.0001
@<TRIPOS>BOND
     1    64    65    2
     2    64    63    1
     3    63    62    1
     4    63    66    1
     5   133   134    1
     6   135   136    2
     7   135   134    1
     8    69    67    1
     9   134   137    1
    10    66    67    1
    11    70    71    1
    12    57    56    2
    13    76    75    1
    14    67    68    1
    15    73    72    2
    16    74    71    1
    17    74    75    1
    18    56    55    1
    19   141   142    1
    20    77    75    1
    21    71    72    1
    22   137   138    1
    23   137   139    1
    24    49    48    2
    25   108   106   ar
    26    72    78   am
    27   138   140    1
    28   107   106   ar
    29   106   105    1
    30    48    47    1
    31    48    54   am
    32   145   142    1
    33   145   146    1
    34   142   143    1
    35    55    54    1
    36    55    58    1
    37    81    80    2
    38    80    79    1
    39    47    46    1
    40    47    50    1
    41   144   143    2
    42    78    79    1
    43   178   176    1
    44   104   105    1
    45   104   101    1
    46    79    82    1
    47    52    51    1
    48    58    59    1
    49   146   148   ar
    50   146   147   ar
    51   176   175    1
    52   171   172    1
    53   128   127    1
    54    51    50    1
    55    51    53    1
    56   127   126    1
    57   148   150   ar
    58   101   100    1
    59   101   102    1
    60   175   172    1
    61   175   177    1
    62   147   149   ar
    63   100    95   am
    64    82    84    1
    65    82    83    1
    66   174   173    2
    67    59    60    1
    68   172   173    1
    69   150   151   ar
    70    95    94    1
    71    95    96    2
    72   149   151   ar
    73   102   109   am
    74   102   103    2
    75    40    39    2
    76   173   179   am
    77   112   111    2
    78    61    60    1
    79    94    97    1
    80    94    93    1
    81   166   165    2
    82   109   110    1
    83   126   125    1
    84    97    99    1
    85    97    98    1
    86   151   152    1
    87    39    38    1
    88   111   110    1
    89   111   121   am
    90   153   154    1
    91   165   164    1
    92   122   125    1
    93   122   121    1
    94   122   123    1
    95   179   180    1
    96   110   113    1
    97   157   154    1
    98   157   158    1
    99   167   164    1
   100   167   168    1
   101   160   158   ar
   102   160   162   ar
   103    38    37    1
   104    38    41    1
   105   180   183    1
   106   180   181    1
   107   154   155    1
   108   113   114    1
   109   164   163    1
   110   123   124    2
   111   158   159   ar
   112    91    89    1
   113   170   168    1
   114   162   161   ar
   115   168   169    1
   116    42    41    1
   117    42    43    1
   118   181   182    2
   119   181   184   am
   120    87    86    1
   121    87    88    2
   122   114   116   ar
   123   114   115   ar
   124    16    17    1
   125   116   118   ar
   126    86    89    1
   127    86    85    1
   128   155   156    2
   129   209   207    1
   130    89    90    1
   131   159   161   ar
   132    19    18    2
   133    92    90    1
   134   184   185    1
   135   132   131    2
   136    20    17    1
   137    45    43   ar
   138    43    44   ar
   139   115   117   ar
   140    17    18    1
   141   188   185    1
   142   188   189    1
   143   118   119   ar
   144    18    21   am
   145   129   130    1
   146   207   208    1
   147   207   204    1
   148   185   186    1
   149   205   206    2
   150   205   204    1
   151   131   130    1
   152   190   189   ar
   153   117   119   ar
   154   208   210    1
   155   189   191   ar
   156   119   120    1
   157   187   186    2
   158   204   203    1
   159    27    25    1
   160    21    22    1
   161   186   192   am
   162    22    25    1
   163    22    23    1
   164   201   199   ar
   165   201   202   ar
   166   199   197   ar
   167    36    35    1
   168    25    26    1
   169    28    23   am
   170    28    29    1
   171    35    34    1
   172    32    29    1
   173    32    33    1
   174   192   193    1
   175    23    24    2
   176   202   200   ar
   177    34    33    1
   178    31    30    2
   179   197   196    1
   180   197   198   ar
   181   196   193    1
   182    29    30    1
   183   193   194    1
   184   200   198   ar
   185     7     6    1
   186    14    13    1
   187   194   195    2
   188    15    13    1
   189    13    10    1
   190     6     8    1
   191     6     5    1
   192    10    11    1
   193    10     9    1
   194    11    12    2
   195     5     2    1
   196     2     1    1
   197     2     3    1
   198     3     4    2
