@<TRIPOS>MOLECULE
tmp/2ofwF01.pdb
 101 95 0 0 0
SMALL
GASTEIGER

@<TRIPOS>ATOM
      1  N        -11.9300   41.5600   21.6150 N.3    38  SER38      -0.1202
      2  CA       -12.8030   41.3140   22.7430 C.3    38  SER38       0.2020
      3  C        -13.3570   42.6770   23.1410 C.2    38  SER38       0.2619
      4  O        -12.6050   43.6180   23.4060 O.2    38  SER38      -0.2717
      5  CB       -12.0190   40.6630   23.8900 C.3    38  SER38       0.2103
      6  OG       -12.9000   40.2050   24.9010 O.3    38  SER38      -0.2182
      7  N        -14.6770   42.7880   23.1250 N.am   39  GLY39      -0.1942
      8  CA       -15.3580   44.0060   23.5230 C.3    39  GLY39       0.2014
      9  C        -15.8900   44.8320   22.3710 C.2    39  GLY39       0.2639
     10  O        -16.5070   45.8690   22.6120 O.2    39  GLY39      -0.2714
     11  N        -15.6770   44.3730   21.1280 N.am   40  ALA40      -0.1963
     12  CA       -16.0130   45.1480   19.9340 C.3    40  ALA40       0.1728
     13  C        -17.5150   45.1940   19.6640 C.2    40  ALA40       0.2617
     14  O        -18.0400   46.1660   19.1080 O.2    40  ALA40      -0.2715
     15  CB       -15.2770   44.5970   18.7270 C.3    40  ALA40       0.0334
     16  N        -18.2050   44.1340   20.0660 N.am   41  GLY41      -0.1940
     17  CA       -19.6480   44.0480   19.9020 C.3    41  GLY41       0.2014
     18  C        -20.0470   42.8960   19.0140 C.2    41  GLY41       0.2639
     19  O        -21.1230   42.9150   18.4430 O.2    41  GLY41      -0.2714
     20  N        -19.1790   41.8880   18.9010 N.am   42  LYS42      -0.1963
     21  CA       -19.4610   40.7310   18.0370 C.3    42  LYS42       0.1728
     22  C        -20.7690   40.0360   18.3900 C.2    42  LYS42       0.2617
     23  O        -21.5680   39.7500   17.4920 O.2    42  LYS42      -0.2715
     24  CB       -18.3130   39.7080   18.0640 C.3    42  LYS42       0.0311
     25  CG       -16.9920   40.1900   17.4580 C.3    42  LYS42       0.0038
     26  CD       -15.9400   39.0920   17.4430 C.3    42  LYS42       0.0206
     27  CE       -15.5620   38.6330   18.8580 C.3    42  LYS42       0.1093
     28  NZ       -14.8570   39.6820   19.6620 N.3    42  LYS42      -0.1314
     29  N        -20.9550   39.7570   19.6900 N.am   43  THR43      -0.1937
     30  CA       -22.0350   38.8990   20.2220 C.3    43  THR43       0.2028
     31  C        -23.3480   39.6660   20.1990 C.2    43  THR43       0.2643
     32  O        -24.4000   39.1090   19.8820 O.2    43  THR43      -0.2714
     33  CB       -21.7350   38.4460   21.6860 C.3    43  THR43       0.1808
     34  OG1      -20.5010   37.7240   21.7330 O.3    43  THR43      -0.2208
     35  CG2      -22.8710   37.5350   22.2740 C.3    43  THR43       0.0379
     36  N        -23.2570   40.9440   20.5570 N.am   44  THR44      -0.1936
     37  CA       -24.3350   41.9110   20.3950 C.3    44  THR44       0.2028
     38  C        -24.8430   41.9780   18.9420 C.2    44  THR44       0.2642
     39  O        -26.0480   41.9290   18.7150 O.2    44  THR44      -0.2714
     40  CB       -23.8760   43.2840   20.9020 C.3    44  THR44       0.1808
     41  OG1      -23.3210   43.1210   22.2010 O.3    44  THR44      -0.2208
     42  CG2      -25.0320   44.2820   20.9890 C.3    44  THR44       0.0379
     43  N        -23.9400   42.0500   17.9610 N.am   45  VAL45      -0.1977
     44  CA       -24.3770   42.0690   16.5590 C.3    45  VAL45       0.1596
     45  C        -24.9390   40.6910   16.1870 C.2    45  VAL45       0.2287
     46  O        -26.0450   40.5850   15.6240 O.2    45  VAL45      -0.2864
     47  CB       -23.2480   42.5230   15.5530 C.3    45  VAL45       0.0276
     48  CG1      -23.7540   42.4770   14.1190 C.3    45  VAL45       0.0022
     49  CG2      -22.7380   43.9240   15.8730 C.3    45  VAL45       0.0022
     50  N        -15.9160   48.8570   27.7270 N.3   145  ARG145     -0.1245
     51  CA       -17.0750   47.9690   27.9080 C.3   145  ARG145      0.1563
     52  C        -16.6750   46.5270   28.2290 C.2   145  ARG145      0.2260
     53  O        -17.4120   45.5890   27.9260 O.2   145  ARG145     -0.2867
     54  CB       -17.9550   47.9550   26.6510 C.3   145  ARG145      0.0307
     55  CG       -17.6890   49.0330   25.6210 C.3   145  ARG145      0.0489
     56  CD       -17.8730   48.4440   24.2380 C.3   145  ARG145      0.2205
     57  NE       -18.2740   49.4350   23.2460 N.pl3 145  ARG145     -0.0865
     58  CZ       -18.2630   49.2220   21.9300 C.cat 145  ARG145      0.5346
     59  NH1      -17.8610   48.0490   21.4480 N.pl3 145  ARG145      0.1354
     60  NH2      -18.6320   50.1870   21.0910 N.pl3 145  ARG145      0.1354
     61  N        -16.6920   44.2930   30.7590 N.3   147  VAL147     -0.1245
     62  CA       -17.3440   44.1380   32.0880 C.3   147  VAL147      0.1561
     63  C        -16.6480   43.1290   32.9810 C.2   147  VAL147      0.2260
     64  O        -16.5680   43.3280   34.1950 O.2   147  VAL147     -0.2867
     65  CB       -18.8700   43.7760   32.0040 C.3   147  VAL147      0.0252
     66  CG1      -19.6870   44.9690   31.5090 C.3   147  VAL147      0.0019
     67  CG2      -19.1160   42.5270   31.1490 C.3   147  VAL147      0.0019
     68  N        -18.4580   50.1110   15.5460 N.3   181  THR181     -0.1218
     69  CA       -19.3850   49.9760   16.6790 C.3   181  THR181      0.1862
     70  C        -19.3690   51.1300   17.6880 C.2   181  THR181      0.2287
     71  O        -20.3400   51.3210   18.4310 O.2   181  THR181     -0.2866
     72  CB       -19.1650   48.6510   17.4540 C.3   181  THR181      0.1770
     73  OG1      -17.8030   48.5700   17.8880 O.3   181  THR181     -0.2211
     74  CG2      -19.5230   47.4490   16.5810 C.3   181  THR181      0.0375
     75  N        -21.5220   53.8490   15.6690 N.3   184  CYS184     -0.1221
     76  CA       -22.7390   53.3000   15.1010 C.3   184  CYS184      0.1808
     77  C        -23.3800   52.5040   16.2300 C.2   184  CYS184      0.2601
     78  O        -22.6670   51.8320   16.9800 O.2   184  CYS184     -0.2717
     79  CB       -22.3480   52.3750   13.9440 C.3   184  CYS184      0.0970
     80  SG       -23.6090   51.9640   12.7010 S.3   184  CYS184     -0.0800
     81  N        -24.7010   52.5970   16.3790 N.am  185  ASP185     -0.1959
     82  CA       -25.4000   51.8250   17.4100 C.3   185  ASP185      0.1840
     83  C        -25.8210   50.4370   16.8980 C.2   185  ASP185      0.2621
     84  O        -25.9120   50.2050   15.6830 O.2   185  ASP185     -0.2715
     85  CB       -26.6020   52.6000   17.9750 C.3   185  ASP185      0.1450
     86  CG       -27.9110   52.2940   17.2460 C.2   185  ASP185      0.3671
     87  OD1      -27.8980   52.1880   16.0000 O.co2 185  ASP185     -0.2456
     88  OD2      -28.9580   52.1610   17.9220 O.co2 185  ASP185     -0.2456
     89  N        -26.0910   49.5370   17.8410 N.am  186  VAL186     -0.1977
     90  CA       -26.4140   48.1390   17.5580 C.3   186  VAL186      0.1596
     91  C        -27.3740   47.9930   16.3960 C.2   186  VAL186      0.2287
     92  O        -27.1670   47.1820   15.4970 O.2   186  VAL186     -0.2864
     93  CB       -27.0440   47.4460   18.7960 C.3   186  VAL186      0.0276
     94  CG1      -27.3670   45.9890   18.5010 C.3   186  VAL186      0.0022
     95  CG2      -26.1170   47.5440   19.9830 C.3   186  VAL186      0.0022
     96  N        -25.8770   48.8810   12.9950 N.3   189  CYS189     -0.1235
     97  CA       -24.9540   47.7950   12.6320 C.3   189  CYS189      0.1677
     98  C        -25.6860   46.5860   12.0480 C.2   189  CYS189      0.2270
     99  O        -25.3190   46.0850   10.9830 O.2   189  CYS189     -0.2867
    100  CB       -24.1100   47.3820   13.8340 C.3   189  CYS189      0.0956
    101  SG       -22.8970   48.6430   14.3540 S.3   189  CYS189     -0.0801
@<TRIPOS>BOND
     1    99    98    2
     2    98    97    1
     3    97    96    1
     4    97   100    1
     5    80    79    1
     6   100   101    1
     7    79    76    1
     8    48    47    1
     9    76    75    1
    10    76    77    1
    11    92    91    2
    12    68    69    1
    13    47    49    1
    14    47    44    1
    15    46    45    2
    16    84    83    2
    17    87    86   ar
    18    45    44    1
    19    77    81   am
    20    77    78    2
    21    81    82    1
    22    91    90    1
    23    44    43    1
    24    74    72    1
    25    69    72    1
    26    69    70    1
    27    83    82    1
    28    83    89   am
    29    86    88   ar
    30    86    85    1
    31    82    85    1
    32    26    25    1
    33    26    27    1
    34    72    73    1
    35    25    24    1
    36    23    22    2
    37    90    89    1
    38    90    93    1
    39    70    71    2
    40    43    38   am
    41    21    24    1
    42    21    22    1
    43    21    20    1
    44    22    29   am
    45    19    18    2
    46    94    93    1
    47    39    38    2
    48    15    12    1
    49    93    95    1
    50    27    28    1
    51    20    18   am
    52    38    37    1
    53    18    17    1
    54    14    13    2
    55    13    12    1
    56    13    16   am
    57    29    30    1
    58    32    31    2
    59    17    16    1
    60    12    11    1
    61    31    30    1
    62    31    36   am
    63    30    33    1
    64    37    36    1
    65    37    40    1
    66    40    42    1
    67    40    41    1
    68    60    58    1
    69    11     9   am
    70    59    58    1
    71     1     2    1
    72    33    34    1
    73    33    35    1
    74    58    57    2
    75     9    10    2
    76     9     8    1
    77     2     3    1
    78     2     5    1
    79     7     3   am
    80     7     8    1
    81     3     4    2
    82    57    56    1
    83     5     6    1
    84    56    55    1
    85    55    54    1
    86    54    51    1
    87    50    51    1
    88    51    52    1
    89    53    52    2
    90    61    62    1
    91    67    65    1
    92    66    65    1
    93    65    62    1
    94    62    63    1
    95    63    64    2
