@<TRIPOS>MOLECULE
tmp/2ofwF00.pdb
 169 162 0 0 0
SMALL
GASTEIGER

@<TRIPOS>ATOM
      1  N        -11.9300   41.5600   21.6150 N.3    38  SER38      -0.1217
      2  CA       -12.8030   41.3140   22.7430 C.3    38  SER38       0.1889
      3  C        -13.3570   42.6770   23.1410 C.2    38  SER38       0.2288
      4  O        -12.6050   43.6180   23.4060 O.2    38  SER38      -0.2866
      5  CB       -12.0190   40.6630   23.8900 C.3    38  SER38       0.2089
      6  OG       -12.9000   40.2050   24.9010 O.3    38  SER38      -0.2183
      7  N        -19.1790   41.8880   18.9010 N.3    42  LYS42      -0.1245
      8  CA       -19.4610   40.7310   18.0370 C.3    42  LYS42       0.1561
      9  C        -20.7690   40.0360   18.3900 C.2    42  LYS42       0.2260
     10  O        -21.5680   39.7500   17.4920 O.2    42  LYS42      -0.2867
     11  CB       -18.3130   39.7080   18.0640 C.3    42  LYS42       0.0271
     12  CG       -16.9920   40.1900   17.4580 C.3    42  LYS42       0.0035
     13  CD       -15.9400   39.0920   17.4430 C.3    42  LYS42       0.0206
     14  CE       -15.5620   38.6330   18.8580 C.3    42  LYS42       0.1093
     15  NZ       -14.8570   39.6820   19.6620 N.3    42  LYS42      -0.1314
     16  N        -18.2790   32.4110   20.0850 N.3    65  GLY65      -0.1210
     17  CA       -16.9950   31.9090   20.5420 C.3    65  GLY65       0.1956
     18  C        -17.0020   31.4010   21.9660 C.2    65  GLY65       0.2611
     19  O        -16.5540   30.2780   22.2220 O.2    65  GLY65      -0.2717
     20  N        -17.5340   32.2130   22.8850 N.am   66  ASP66      -0.1973
     21  CA       -17.6290   31.8520   24.3060 C.3    66  ASP66       0.1709
     22  C        -18.5710   30.6730   24.5490 C.2    66  ASP66       0.2293
     23  O        -18.3110   29.8540   25.4140 O.2    66  ASP66      -0.2864
     24  CB       -18.1140   33.0470   25.1480 C.3    66  ASP66       0.1436
     25  CG       -17.0280   34.0870   25.3940 C.2    66  ASP66       0.3671
     26  OD1      -16.3500   34.0090   26.4460 O.co2  66  ASP66      -0.2456
     27  OD2      -16.8730   34.9940   24.5470 O.co2  66  ASP66      -0.2456
     28  N        -16.9550   27.3490   23.3710 N.3    69  ARG69      -0.1245
     29  CA       -15.8000   26.9590   24.2010 C.3    69  ARG69       0.1563
     30  C        -16.2170   26.4330   25.5760 C.2    69  ARG69       0.2260
     31  O        -15.3690   26.0800   26.3910 O.2    69  ARG69      -0.2867
     32  CB       -14.7950   28.1060   24.3700 C.3    69  ARG69       0.0307
     33  CG       -13.8460   28.3470   23.1790 C.3    69  ARG69       0.0489
     34  CD       -12.9280   29.4890   23.5070 C.3    69  ARG69       0.2205
     35  NE       -11.9450   29.8470   22.4810 N.pl3  69  ARG69      -0.0865
     36  CZ       -10.7030   29.3480   22.4120 C.cat  69  ARG69       0.5346
     37  NH1      -10.3040   28.4070   23.2640 N.pl3  69  ARG69       0.1354
     38  NH2       -9.8650   29.7630   21.4610 N.pl3  69  ARG69       0.1354
     39  N         -5.8990   29.0950   24.4060 N.3    78  PHE78      -0.1241
     40  CA        -5.7170   30.3180   23.5930 C.3    78  PHE78       0.1605
     41  C         -4.2900   30.5030   23.0480 C.2    78  PHE78       0.2264
     42  O         -3.8930   31.6220   22.6730 O.2    78  PHE78      -0.2867
     43  CB        -6.1710   31.5680   24.3710 C.3    78  PHE78       0.0534
     44  CG        -7.6280   31.5360   24.8110 C.ar   78  PHE78      -0.0203
     45  CD1       -8.6130   32.1120   24.0260 C.ar   78  PHE78      -0.0042
     46  CD2       -7.9990   30.9360   26.0260 C.ar   78  PHE78      -0.0042
     47  CE1       -9.9510   32.1020   24.4330 C.ar   78  PHE78      -0.0003
     48  CE2       -9.3230   30.8970   26.4380 C.ar   78  PHE78      -0.0003
     49  CZ       -10.3090   31.4850   25.6510 C.ar   78  PHE78      -0.0000
     50  N         -6.1340   28.4000   18.9700 N.3    83  ARG83      -0.1245
     51  CA        -6.9730   29.3420   18.2270 C.3    83  ARG83       0.1563
     52  C         -7.1690   28.8610   16.7830 C.2    83  ARG83       0.2260
     53  O         -8.2790   28.8870   16.2530 O.2    83  ARG83      -0.2867
     54  CB        -6.3690   30.7450   18.3270 C.3    83  ARG83       0.0307
     55  CG        -6.1640   31.1070   19.8100 C.3    83  ARG83       0.0489
     56  CD        -5.4020   32.4320   20.0720 C.3    83  ARG83       0.2205
     57  NE        -6.3740   33.4770   20.2990 N.pl3  83  ARG83      -0.0865
     58  CZ        -6.4780   34.2920   21.3390 C.cat  83  ARG83       0.5346
     59  NH1       -5.6140   34.3360   22.3450 N.pl3  83  ARG83       0.1354
     60  NH2       -7.4620   35.1440   21.3140 N.pl3  83  ARG83       0.1354
     61  N         -9.5730   25.9570   17.1340 N.3    86  ASN86      -0.1225
     62  CA       -10.8640   26.5050   17.5190 C.3    86  ASN86       0.1785
     63  C        -11.6390   27.0110   16.2900 C.2    86  ASN86       0.2597
     64  O        -12.8000   26.6540   16.0910 O.2    86  ASN86      -0.2718
     65  CB       -10.6750   27.6130   18.5550 C.3    86  ASN86       0.1169
     66  CG       -11.9800   28.2020   19.0220 C.2    86  ASN86       0.2627
     67  OD1      -12.8420   27.4940   19.5690 O.2    86  ASN86      -0.2716
     68  ND2      -12.1340   29.5030   18.8340 N.am   86  ASN86      -0.0877
     69  N        -10.9650   27.8090   15.4580 N.am   87  VAL87      -0.1980
     70  CA       -11.5810   28.3700   14.2530 C.3    87  VAL87       0.1595
     71  C        -11.7630   27.2950   13.1580 C.2    87  VAL87       0.2287
     72  O        -12.7750   27.2940   12.4290 O.2    87  VAL87      -0.2864
     73  CB       -10.8190   29.6370   13.7680 C.3    87  VAL87       0.0276
     74  CG1      -11.1830   30.0190   12.3260 C.3    87  VAL87       0.0022
     75  CG2      -11.0830   30.8110   14.7220 C.3    87  VAL87       0.0022
     76  N        -19.5170   34.3410   15.8740 N.3   107  SER107     -0.1202
     77  CA       -18.9160   35.4790   16.5910 C.3   107  SER107      0.2020
     78  C        -17.7190   35.0610   17.4190 C.2   107  SER107      0.2619
     79  O        -17.8330   34.8000   18.6210 O.2   107  SER107     -0.2717
     80  CB       -19.9470   36.2150   17.4640 C.3   107  SER107      0.2103
     81  OG       -21.0210   35.3930   17.8750 O.3   107  SER107     -0.2182
     82  N        -16.5680   34.9990   16.7520 N.am  108  PHE108     -0.1961
     83  CA       -15.3260   34.5150   17.3290 C.3   108  PHE108      0.1771
     84  C        -14.3440   35.6640   17.1280 C.2   108  PHE108      0.2619
     85  O        -14.4090   36.3440   16.1070 O.2   108  PHE108     -0.2715
     86  CB       -14.8370   33.2790   16.5450 C.3   108  PHE108      0.0574
     87  CG       -15.4590   31.9540   16.9850 C.ar  108  PHE108     -0.0200
     88  CD1      -14.6500   30.9480   17.5130 C.ar  108  PHE108     -0.0042
     89  CD2      -16.8340   31.7110   16.8500 C.ar  108  PHE108     -0.0042
     90  CE1      -15.1950   29.7180   17.9160 C.ar  108  PHE108     -0.0003
     91  CE2      -17.4080   30.4690   17.2610 C.ar  108  PHE108     -0.0003
     92  CZ       -16.5850   29.4810   17.7900 C.ar  108  PHE108     -0.0000
     93  N        -13.4320   35.8830   18.0620 N.am  109  ILE109     -0.1963
     94  CA       -12.3540   36.8660   17.8210 C.3   109  ILE109      0.1727
     95  C        -11.6350   36.6210   16.4520 C.2   109  ILE109      0.2617
     96  O        -11.4230   37.5570   15.6740 O.2   109  ILE109     -0.2715
     97  CB       -11.3490   36.8620   18.9810 C.3   109  ILE109      0.0290
     98  CG1      -12.0300   37.3010   20.2810 C.3   109  ILE109      0.0022
     99  CG2      -10.0320   37.6580   18.6380 C.3   109  ILE109      0.0023
    100  CD1      -11.1520   37.2110   21.5070 C.3   109  ILE109      0.0001
    101  N        -11.3040   35.3570   16.1790 N.am  110  SER110     -0.1936
    102  CA       -10.5580   34.9260   14.9900 C.3   110  SER110      0.2040
    103  C         -9.4540   35.9250   14.5830 C.2   110  SER110      0.2485
    104  O         -9.5460   36.5700   13.5370 O.2   110  SER110     -0.2729
    105  CB       -11.5010   34.6120   13.8200 C.3   110  SER110      0.2129
    106  OG       -12.4680   35.6320   13.6410 O.3   110  SER110     -0.2179
    107  N         -8.3990   36.0290   15.4080 N.am  111  PRO111     -0.2726
    108  CA        -7.4090   37.0930   15.2250 C.3   111  PRO111      0.1402
    109  C         -6.4090   36.8610   14.0960 C.2   111  PRO111      0.2269
    110  O         -5.5230   37.6890   13.9060 O.2   111  PRO111     -0.2865
    111  CB        -6.6570   37.0920   16.5520 C.3   111  PRO111      0.0296
    112  CG        -6.7220   35.6580   17.0130 C.3   111  PRO111      0.0237
    113  CD        -8.0630   35.1510   16.5460 C.3   111  PRO111      0.0939
    114  N        -16.1420   42.0580   32.3630 N.3   148  LYS148     -0.1245
    115  CA       -15.3650   41.0220   33.0360 C.3   148  LYS148      0.1561
    116  C        -13.9000   41.3700   33.3670 C.2   148  LYS148      0.2260
    117  O        -13.2210   40.5810   34.0110 O.2   148  LYS148     -0.2867
    118  CB       -15.5020   39.6920   32.1700 C.3   148  LYS148      0.0271
    119  CG       -14.5970   39.6240   30.9500 C.3   148  LYS148      0.0035
    120  CD       -14.7700   38.3090   30.2060 C.3   148  LYS148      0.0206
    121  CE       -16.0870   38.2750   29.4460 C.3   148  LYS148      0.1093
    122  NZ       -16.4420   36.8950   29.0130 N.3   148  LYS148     -0.1314
    123  N        -11.1530   41.5610   31.5610 N.3   150  LEU150     -0.1245
    124  CA       -10.1390   40.6740   30.9900 C.3   150  LEU150      0.1561
    125  C         -8.8960   41.4160   30.5500 C.2   150  LEU150      0.2260
    126  O         -7.7920   40.8980   30.6910 O.2   150  LEU150     -0.2867
    127  CB       -10.7010   39.8290   29.8370 C.3   150  LEU150      0.0270
    128  CG       -11.7780   38.7770   30.1770 C.3   150  LEU150      0.0019
    129  CD1      -11.9380   37.7470   29.0540 C.3   150  LEU150      0.0001
    130  CD2      -11.5020   38.0580   31.5050 C.3   150  LEU150      0.0001
    131  N         -3.8690   36.4330   33.0140 N.3   159  ILE159     -0.1231
    132  CA        -4.2370   35.7710   31.7750 C.3   159  ILE159      0.1692
    133  C         -3.0990   35.9970   30.7960 C.2   159  ILE159      0.2592
    134  O         -2.7630   37.1370   30.4680 O.2   159  ILE159     -0.2718
    135  CB        -5.5620   36.3130   31.1570 C.3   159  ILE159      0.0266
    136  CG1       -6.6940   36.3310   32.1930 C.3   159  ILE159      0.0019
    137  CG2       -5.9730   35.4740   29.9200 C.3   159  ILE159      0.0020
    138  CD1       -7.9480   37.0010   31.7050 C.3   159  ILE159      0.0001
    139  N         -2.5100   34.8910   30.3530 N.am  160  LYS160     -0.1966
    140  CA        -1.3890   34.8940   29.4190 C.3   160  LYS160      0.1728
    141  C         -1.8780   34.8340   27.9740 C.2   160  LYS160      0.2617
    142  O         -2.7920   34.0840   27.6600 O.2   160  LYS160     -0.2715
    143  CB        -0.4670   33.7010   29.6970 C.3   160  LYS160      0.0311
    144  CG         0.5010   33.9060   30.8550 C.3   160  LYS160      0.0038
    145  CD        -0.1110   33.4900   32.1930 C.3   160  LYS160      0.0206
    146  CE         0.8840   33.6720   33.3270 C.3   160  LYS160      0.1093
    147  NZ         1.1690   35.1060   33.6310 N.3   160  LYS160     -0.1314
    148  N         -1.2540   35.6240   27.1070 N.am  161  GLY161     -0.1940
    149  CA        -1.5590   35.6030   25.6800 C.3   161  GLY161      0.2014
    150  C         -2.9420   36.1380   25.3510 C.2   161  GLY161      0.2639
    151  O         -3.6790   35.5060   24.6140 O.2   161  GLY161     -0.2714
    152  N         -3.2870   37.3070   25.8920 N.am  162  PHE162     -0.1959
    153  CA        -4.5960   37.9100   25.6460 C.3   162  PHE162      0.1771
    154  C         -4.6070   38.8580   24.4310 C.2   162  PHE162      0.2620
    155  O         -3.7920   39.7700   24.3370 O.2   162  PHE162     -0.2715
    156  CB        -5.1420   38.5820   26.9270 C.3   162  PHE162      0.0574
    157  CG        -6.5760   39.0260   26.8040 C.ar  162  PHE162     -0.0200
    158  CD1       -7.6210   38.1540   27.1200 C.ar  162  PHE162     -0.0042
    159  CD2       -6.8850   40.3030   26.3360 C.ar  162  PHE162     -0.0042
    160  CE1       -8.9450   38.5330   26.9490 C.ar  162  PHE162     -0.0003
    161  CE2       -8.2180   40.6990   26.1790 C.ar  162  PHE162     -0.0003
    162  CZ        -9.2380   39.8150   26.4760 C.ar  162  PHE162     -0.0000
    163  N         -5.5350   38.6250   23.5070 N.am  163  THR163     -0.1951
    164  CA        -5.6250   39.3670   22.2600 C.3   163  THR163      0.1897
    165  C         -5.6890   40.8860   22.4960 C.2   163  THR163      0.2313
    166  O         -6.5590   41.3720   23.2540 O.2   163  THR163     -0.2863
    167  CB        -6.8700   38.9030   21.4580 C.3   163  THR163      0.1794
    168  OG1       -6.8440   37.4810   21.3150 O.3   163  THR163     -0.2208
    169  CG2       -6.9480   39.5690   20.0640 C.3   163  THR163      0.0378
@<TRIPOS>BOND
     1    74    73    1
     2    72    71    2
     3    71    70    1
     4   104   103    2
     5   106   105    1
     6    73    70    1
     7    73    75    1
     8   105   102    1
     9   110   109    2
    10   109   108    1
    11    70    69    1
    12   103   102    1
    13   103   107   am
    14   102   101    1
    15   108   107    1
    16   108   111    1
    17   107   113    1
    18    69    63   am
    19    96    95    2
    20    76    77    1
    21    64    63    2
    22    85    84    2
    23   101    95   am
    24    53    52    2
    25    63    62    1
    26    95    94    1
    27    86    87    1
    28    86    83    1
    29   113   112    1
    30   111   112    1
    31    77    78    1
    32    77    80    1
    33    82    83    1
    34    82    78   am
    35    52    51    1
    36    89    87   ar
    37    89    91   ar
    38    87    88   ar
    39    84    83    1
    40    84    93   am
    41    61    62    1
    42    91    92   ar
    43    78    79    2
    44    13    12    1
    45    13    14    1
    46    12    11    1
    47    80    81    1
    48    10     9    2
    49    88    90   ar
    50    62    65    1
    51    92    90   ar
    52    94    93    1
    53    94    97    1
    54     8    11    1
    55     8     9    1
    56     8     7    1
    57    51    54    1
    58    51    50    1
    59    54    55    1
    60    65    66    1
    61    99    97    1
    62    68    66   am
    63    14    15    1
    64    97    98    1
    65    66    67    2
    66    55    56    1
    67   169   167    1
    68    56    57    1
    69    16    17    1
    70    98   100    1
    71    57    58    2
    72    17    18    1
    73    60    58    1
    74   168   167    1
    75    58    59    1
    76   167   164    1
    77    38    36    1
    78     1     2    1
    79    18    19    2
    80    18    20   am
    81   164   165    1
    82   164   163    1
    83    36    35    2
    84    36    37    1
    85    35    34    1
    86   165   166    2
    87    42    41    2
    88     2     3    1
    89     2     5    1
    90    20    21    1
    91    41    40    1
    92     3     4    2
    93    33    34    1
    94    33    32    1
    95    28    29    1
    96   163   154   am
    97    40    43    1
    98    40    39    1
    99     5     6    1
   100    45    47   ar
   101    45    44   ar
   102    29    32    1
   103    29    30    1
   104    21    22    1
   105    21    24    1
   106   155   154    2
   107    43    44    1
   108   154   153    1
   109    47    49   ar
   110    27    25   ar
   111    22    23    2
   112   151   150    2
   113    44    46   ar
   114    24    25    1
   115   150   149    1
   116   150   152   am
   117    25    26   ar
   118    30    31    2
   119   153   152    1
   120   153   156    1
   121    49    48   ar
   122   149   148    1
   123    46    48   ar
   124   161   159   ar
   125   161   162   ar
   126   159   157   ar
   127   162   160   ar
   128   157   156    1
   129   157   158   ar
   130   160   158   ar
   131   148   141   am
   132   142   141    2
   133   141   140    1
   134   122   121    1
   135   129   128    1
   136   140   143    1
   137   140   139    1
   138   121   120    1
   139   143   144    1
   140   127   128    1
   141   127   124    1
   142   137   135    1
   143   128   130    1
   144   120   119    1
   145   139   133   am
   146   134   133    2
   147   125   126    2
   148   125   124    1
   149   133   132    1
   150   144   145    1
   151   119   118    1
   152   124   123    1
   153   135   132    1
   154   135   136    1
   155   138   136    1
   156   132   131    1
   157   118   115    1
   158   145   146    1
   159   114   115    1
   160   115   116    1
   161   146   147    1
   162   116   117    2
