@<TRIPOS>MOLECULE
tmp/2ofxB02.pdb
 103 96 0 0 0
SMALL
GASTEIGER

@<TRIPOS>ATOM
      1  N          5.8350   23.3980  -32.6650 N.3    40  GLY40      -0.1210
      2  CA         6.6420   22.7950  -33.7010 C.3    40  GLY40       0.1956
      3  C          7.5910   23.7290  -34.4000 C.2    40  GLY40       0.2612
      4  O          8.3400   23.3020  -35.2670 O.2    40  GLY40      -0.2717
      5  N          7.5500   25.0190  -34.0430 N.am   41  ALA41      -0.1965
      6  CA         8.4280   26.0240  -34.6670 C.3    41  ALA41       0.1728
      7  C          9.8900   25.7770  -34.2990 C.2    41  ALA41       0.2616
      8  O         10.7800   26.1630  -35.0300 O.2    41  ALA41      -0.2715
      9  CB         7.9990   27.4530  -34.2530 C.3    41  ALA41       0.0334
     10  N         10.1340   25.1630  -33.1390 N.am   42  GLY42      -0.1955
     11  CA        11.5000   24.9150  -32.6940 C.3    42  GLY42       0.1869
     12  C         11.8860   25.4700  -31.3380 C.2    42  GLY42       0.2309
     13  O         13.0900   25.4780  -30.9860 O.2    42  GLY42      -0.2863
     14  N         11.5150   24.4560  -28.0790 N.3    44  THR44      -0.1203
     15  CA        12.2240   23.5630  -27.1290 C.3    44  THR44       0.1994
     16  C         13.6190   23.1700  -27.6370 C.2    44  THR44       0.2619
     17  O         14.5840   23.1720  -26.8940 O.2    44  THR44      -0.2717
     18  CB        11.3860   22.3030  -26.8250 C.3    44  THR44       0.1784
     19  OG1       10.1090   22.7210  -26.3400 O.3    44  THR44      -0.2211
     20  CG2       12.0620   21.4140  -25.7610 C.3    44  THR44       0.0376
     21  N         13.7180   22.8750  -28.9330 N.am   45  THR45      -0.1938
     22  CA        14.9830   22.4870  -29.5410 C.3    45  THR45       0.2028
     23  C         16.0010   23.5940  -29.3650 C.2    45  THR45       0.2642
     24  O         17.1380   23.3510  -28.9620 O.2    45  THR45      -0.2714
     25  CB        14.7570   22.1770  -31.0410 C.3    45  THR45       0.1808
     26  OG1       13.7570   21.1610  -31.1450 O.3    45  THR45      -0.2208
     27  CG2       16.0280   21.7150  -31.7120 C.3    45  THR45       0.0379
     28  N         15.5790   24.8190  -29.6560 N.am   46  VAL46      -0.1977
     29  CA        16.4360   25.9700  -29.4460 C.3    46  VAL46       0.1596
     30  C         16.7260   26.1930  -27.9510 C.2    46  VAL46       0.2287
     31  O         17.8890   26.4080  -27.5830 O.2    46  VAL46      -0.2864
     32  CB        15.8470   27.2500  -30.0520 C.3    46  VAL46       0.0276
     33  CG1       16.7180   28.4670  -29.6670 C.3    46  VAL46       0.0022
     34  CG2       15.7230   27.1280  -31.5770 C.3    46  VAL46       0.0022
     35  N          6.2370   19.1360  -39.8550 N.3   146  ARG146     -0.1245
     36  CA         7.0560   18.4820  -38.8180 C.3   146  ARG146      0.1563
     37  C          6.1800   17.6360  -37.8650 C.2   146  ARG146      0.2260
     38  O          6.4110   16.4250  -37.7010 O.2   146  ARG146     -0.2867
     39  CB         7.8720   19.5120  -38.0340 C.3   146  ARG146      0.0307
     40  CG         8.7860   20.3590  -38.8900 C.3   146  ARG146      0.0489
     41  CD         9.1270   21.6690  -38.1920 C.3   146  ARG146      0.2205
     42  NE        10.2590   22.3350  -38.8200 N.pl3 146  ARG146     -0.0865
     43  CZ        10.9510   23.3380  -38.2800 C.cat 146  ARG146      0.5346
     44  NH1       10.6270   23.8340  -37.0860 N.pl3 146  ARG146      0.1354
     45  NH2       11.9770   23.8480  -38.9490 N.pl3 146  ARG146      0.1354
     46  N          5.9450   16.5760  -34.9180 N.3   148  VAL148     -0.1231
     47  CA         6.5470   15.5900  -34.0020 C.3   148  VAL148      0.1692
     48  C          5.5790   14.9240  -33.0310 C.2   148  VAL148      0.2591
     49  O          5.6010   13.6940  -32.8370 O.2   148  VAL148     -0.2718
     50  CB         7.6220   16.2400  -33.1010 C.3   148  VAL148      0.0266
     51  CG1        8.9970   15.6480  -33.3910 C.3   148  VAL148      0.0020
     52  CG2        7.5530   17.7920  -33.1880 C.3   148  VAL148      0.0020
     53  N          4.7690   15.7420  -32.3770 N.am  149  LYS149     -0.1980
     54  CA         3.9420   15.2460  -31.2990 C.3   149  LYS149      0.1596
     55  C          2.5530   14.8180  -31.7820 C.2   149  LYS149      0.2287
     56  O          1.7070   14.4360  -30.9860 O.2   149  LYS149     -0.2864
     57  CB         3.8530   16.2790  -30.1790 C.3   149  LYS149      0.0298
     58  CG         5.2040   16.6970  -29.6140 C.3   149  LYS149      0.0038
     59  CD         4.9910   17.6140  -28.4260 C.3   149  LYS149      0.0206
     60  CE         5.8720   18.8440  -28.4980 C.3   149  LYS149      0.1093
     61  NZ         5.3310   19.8980  -27.6180 N.3   149  LYS149     -0.1314
     62  N         13.4700   29.1640  -38.2520 N.3   182  THR182     -0.1203
     63  CA        13.7980   27.7650  -38.0100 C.3   182  THR182      0.1994
     64  C         13.4530   26.8560  -39.1840 C.2   182  THR182      0.2617
     65  O         13.7800   25.6700  -39.1530 O.2   182  THR182     -0.2717
     66  CB        13.0650   27.2480  -36.7690 C.3   182  THR182      0.1784
     67  OG1       11.6480   27.4220  -36.9610 O.3   182  THR182     -0.2211
     68  CG2       13.5010   28.0200  -35.5480 C.3   182  THR182      0.0376
     69  N         12.7760   27.4000  -40.1940 N.am  183  ASP183     -0.1973
     70  CA        12.5570   26.6540  -41.4380 C.3   183  ASP183      0.1709
     71  C         13.8310   26.5730  -42.3090 C.2   183  ASP183      0.2293
     72  O         13.9590   25.7100  -43.1740 O.2   183  ASP183     -0.2864
     73  CB        11.4130   27.2620  -42.2570 C.3   183  ASP183      0.1436
     74  CG        10.9720   26.3500  -43.3610 C.2   183  ASP183      0.3671
     75  OD1       11.2820   25.1460  -43.2520 O.co2 183  ASP183     -0.2456
     76  OD2       10.3260   26.8060  -44.3320 O.co2 183  ASP183     -0.2456
     77  N         17.2170   27.5050  -41.0060 N.3   185  CYS185     -0.1221
     78  CA        18.4160   27.3990  -40.1820 C.3   185  CYS185      0.1808
     79  C         18.3420   26.1190  -39.4000 C.2   185  CYS185      0.2601
     80  O         17.2510   25.7090  -38.9920 O.2   185  CYS185     -0.2717
     81  CB        18.4460   28.4990  -39.1310 C.3   185  CYS185      0.0970
     82  SG        18.5620   30.1240  -39.7430 S.3   185  CYS185     -0.0800
     83  N         19.4930   25.5000  -39.1570 N.am  186  ASP186     -0.1959
     84  CA        19.5320   24.3900  -38.2100 C.3   186  ASP186      0.1840
     85  C         19.5780   24.9300  -36.7770 C.2   186  ASP186      0.2621
     86  O         19.7550   26.1290  -36.5740 O.2   186  ASP186     -0.2715
     87  CB        20.6510   23.3690  -38.5360 C.3   186  ASP186      0.1450
     88  CG        22.0570   23.9620  -38.5370 C.2   186  ASP186      0.3671
     89  OD1       22.3270   25.0290  -37.9370 O.co2 186  ASP186     -0.2456
     90  OD2       22.9340   23.2990  -39.1300 O.co2 186  ASP186     -0.2456
     91  N         19.3660   24.0550  -35.8060 N.am  187  VAL187     -0.1977
     92  CA        19.3450   24.4260  -34.3980 C.3   187  VAL187      0.1596
     93  C         20.6320   25.1240  -33.9500 C.2   187  VAL187      0.2287
     94  O         20.5740   26.1700  -33.3250 O.2   187  VAL187     -0.2864
     95  CB        18.9740   23.2340  -33.4800 C.3   187  VAL187      0.0276
     96  CG1       19.8690   22.0210  -33.7150 C.3   187  VAL187      0.0022
     97  CG2       19.0090   23.6380  -32.0210 C.3   187  VAL187      0.0022
     98  N         20.4700   28.5610  -35.1370 N.3   190  CYS190     -0.1235
     99  CA        19.5450   29.3350  -34.2990 C.3   190  CYS190      0.1677
    100  C         20.1870   29.6570  -32.9400 C.2   190  CYS190      0.2270
    101  O         20.0760   30.7840  -32.4470 O.2   190  CYS190     -0.2867
    102  CB        18.1870   28.6130  -34.1660 C.3   190  CYS190      0.0956
    103  SG        17.2680   28.6010  -35.7470 S.3   190  CYS190     -0.0801
@<TRIPOS>BOND
     1    76    74   ar
     2    74    75   ar
     3    74    73    1
     4    72    71    2
     5    71    70    1
     6    73    70    1
     7    70    69    1
     8    77    78    1
     9    69    64   am
    10    78    79    1
    11    78    81    1
    12    35    36    1
    13    82    81    1
    14    79    83   am
    15    79    80    2
    16    64    65    2
    17    64    63    1
    18    83    84    1
    19    90    88   ar
    20    45    43    1
    21    40    41    1
    22    40    39    1
    23    42    43    2
    24    42    41    1
    25    36    39    1
    26    36    37    1
    27    88    87    1
    28    88    89   ar
    29    87    84    1
    30    43    44    1
    31    62    63    1
    32    84    85    1
    33    63    66    1
    34    37    38    2
    35    67    66    1
    36    85    86    2
    37    85    91   am
    38    66    68    1
    39    91    92    1
    40   103   102    1
    41     4     3    2
    42    98    99    1
    43     8     7    2
    44    46    47    1
    45     6     7    1
    46     6     9    1
    47     6     5    1
    48     3     5   am
    49     3     2    1
    50    92    93    1
    51    92    95    1
    52     7    10   am
    53    99   102    1
    54    99   100    1
    55    47    50    1
    56    47    48    1
    57    93    94    2
    58    96    95    1
    59     2     1    1
    60    95    97    1
    61    51    50    1
    62    52    50    1
    63    10    11    1
    64    48    49    2
    65    48    53   am
    66   100   101    2
    67    11    12    1
    68    53    54    1
    69    55    54    1
    70    55    56    2
    71    27    25    1
    72    34    32    1
    73    12    13    2
    74    54    57    1
    75    26    25    1
    76    25    22    1
    77    57    58    1
    78    32    33    1
    79    32    29    1
    80    28    29    1
    81    28    23   am
    82    58    59    1
    83    22    23    1
    84    22    21    1
    85    29    30    1
    86    23    24    2
    87    21    16   am
    88    60    59    1
    89    60    61    1
    90    14    15    1
    91    30    31    2
    92    16    15    1
    93    16    17    2
    94    15    18    1
    95    18    19    1
    96    18    20    1
