@<TRIPOS>MOLECULE
tmp/2ofxB01.pdb
 188 181 0 0 0
SMALL
GASTEIGER

@<TRIPOS>ATOM
      1  N          3.5160   25.9240  -32.1050 N.3    39  SER39      -0.1202
      2  CA         3.8990   24.5650  -31.7640 C.3    39  SER39       0.2020
      3  C          4.6800   23.9920  -32.9520 C.2    39  SER39       0.2619
      4  O          4.2780   24.1540  -34.1010 O.2    39  SER39      -0.2717
      5  CB         2.6570   23.7470  -31.4160 C.3    39  SER39       0.2103
      6  OG         2.9420   22.3690  -31.2790 O.3    39  SER39      -0.2182
      7  N          5.8350   23.3980  -32.6650 N.am   40  GLY40      -0.1956
      8  CA         6.6420   22.7950  -33.7010 C.3    40  GLY40       0.1869
      9  C          7.5910   23.7290  -34.4000 C.2    40  GLY40       0.2309
     10  O          8.3400   23.3020  -35.2670 O.2    40  GLY40      -0.2863
     11  N         10.8950   25.9340  -30.5750 N.3    43  LYS43      -0.1231
     12  CA        11.1610   26.5630  -29.2660 C.3    43  LYS43       0.1693
     13  C         11.9530   25.6860  -28.3110 C.2    43  LYS43       0.2592
     14  O         12.9460   26.1200  -27.7870 O.2    43  LYS43      -0.2718
     15  CB         9.8710   27.0060  -28.5760 C.3    43  LYS43       0.0285
     16  CG         9.0710   28.0120  -29.3400 C.3    43  LYS43       0.0035
     17  CD         7.8440   28.3950  -28.4880 C.3    43  LYS43       0.0206
     18  CE         6.9880   27.1840  -28.2290 C.3    43  LYS43       0.1093
     19  NZ         6.3270   26.6690  -29.4410 N.3    43  LYS43      -0.1314
     20  N         11.5150   24.4560  -28.0790 N.am   44  THR44      -0.1953
     21  CA        12.2240   23.5630  -27.1290 C.3    44  THR44       0.1897
     22  C         13.6190   23.1700  -27.6370 C.2    44  THR44       0.2313
     23  O         14.5840   23.1720  -26.8940 O.2    44  THR44      -0.2863
     24  CB        11.3860   22.3030  -26.8250 C.3    44  THR44       0.1794
     25  OG1       10.1090   22.7210  -26.3400 O.3    44  THR44      -0.2208
     26  CG2       12.0620   21.4140  -25.7610 C.3    44  THR44       0.0378
     27  N         10.2720   25.3220  -19.8620 N.3    65  ASP65      -0.1225
     28  CA         9.5700   24.9300  -21.0800 C.3    65  ASP65       0.1805
     29  C          8.0740   24.7340  -20.8130 C.2    65  ASP65       0.2598
     30  O          7.6780   24.2070  -19.7670 O.2    65  ASP65      -0.2718
     31  CB        10.1910   23.6690  -21.6700 C.3    65  ASP65       0.1424
     32  CG         9.5370   23.2650  -22.9770 C.2    65  ASP65       0.3668
     33  OD1        8.6070   22.4270  -22.9420 O.co2  65  ASP65      -0.2456
     34  OD2        9.9270   23.8190  -24.0290 O.co2  65  ASP65      -0.2456
     35  N          7.2690   25.1980  -21.7590 N.am   66  GLY66      -0.1942
     36  CA         5.8220   25.2700  -21.6160 C.3    66  GLY66       0.2014
     37  C          5.2580   23.9140  -21.2580 C.2    66  GLY66       0.2638
     38  O          4.5300   23.7930  -20.2780 O.2    66  GLY66      -0.2714
     39  N          5.6110   22.8980  -22.0460 N.am   67  ASP67      -0.1971
     40  CA         5.1630   21.5140  -21.7640 C.3    67  ASP67       0.1709
     41  C          5.5610   21.0360  -20.3610 C.2    67  ASP67       0.2293
     42  O          4.7610   20.3680  -19.6820 O.2    67  ASP67      -0.2864
     43  CB         5.6920   20.5460  -22.8090 C.3    67  ASP67       0.1436
     44  CG         4.8390   20.5160  -24.0740 C.2    67  ASP67       0.3671
     45  OD1        3.8610   19.7580  -24.1380 O.co2  67  ASP67      -0.2456
     46  OD2        5.1610   21.2400  -25.0300 O.co2  67  ASP67      -0.2456
     47  N          3.8220   23.0820  -17.4960 N.3    70  ARG70      -0.1245
     48  CA         2.4220   22.6450  -17.4960 C.3    70  ARG70       0.1563
     49  C          2.2210   21.2640  -16.8760 C.2    70  ARG70       0.2260
     50  O          1.0960   20.7880  -16.7970 O.2    70  ARG70      -0.2867
     51  CB         1.8020   22.7080  -18.8880 C.3    70  ARG70       0.0307
     52  CG         1.4300   24.1320  -19.2720 C.3    70  ARG70       0.0489
     53  CD         0.9310   24.1880  -20.6960 C.3    70  ARG70       0.2205
     54  NE         0.3880   25.5020  -21.0060 N.pl3  70  ARG70      -0.0865
     55  CZ        -0.8530   25.8900  -20.7250 C.cat  70  ARG70       0.5346
     56  NH1       -1.6810   25.0630  -20.0980 N.pl3  70  ARG70       0.1354
     57  NH2       -1.2620   27.1000  -21.0700 N.pl3  70  ARG70       0.1354
     58  N         -5.8570   25.6040  -21.8700 N.3    79  PHE79      -0.1241
     59  CA        -5.4500   26.3600  -23.0460 C.3    79  PHE79       0.1605
     60  C         -6.4890   27.3360  -23.5350 C.2    79  PHE79       0.2264
     61  O         -6.4680   27.7580  -24.7010 O.2    79  PHE79      -0.2867
     62  CB        -5.0570   25.3980  -24.1660 C.3    79  PHE79       0.0534
     63  CG        -3.8600   24.6080  -23.8350 C.ar   79  PHE79      -0.0203
     64  CD1       -2.6030   25.1540  -24.0150 C.ar   79  PHE79      -0.0042
     65  CD2       -3.9900   23.3300  -23.2750 C.ar   79  PHE79      -0.0042
     66  CE1       -1.4590   24.4100  -23.6690 C.ar   79  PHE79      -0.0003
     67  CE2       -2.8730   22.6070  -22.9190 C.ar   79  PHE79      -0.0003
     68  CZ        -1.6200   23.1350  -23.1170 C.ar   79  PHE79      -0.0000
     69  N         -3.9780   30.6060  -20.7040 N.3    84  ARG84      -0.1245
     70  CA        -2.7060   30.8850  -21.3430 C.3    84  ARG84       0.1563
     71  C         -2.1460   32.2090  -20.8300 C.2    84  ARG84       0.2260
     72  O         -0.9420   32.3350  -20.6370 O.2    84  ARG84      -0.2867
     73  CB        -2.8790   30.9250  -22.8660 C.3    84  ARG84       0.0307
     74  CG        -3.3050   29.5980  -23.4810 C.3    84  ARG84       0.0489
     75  CD        -3.3860   29.8170  -24.9700 C.3    84  ARG84       0.2205
     76  NE        -3.9550   28.7280  -25.7460 N.pl3  84  ARG84      -0.0865
     77  CZ        -3.2860   27.8810  -26.5180 C.cat  84  ARG84       0.5346
     78  NH1       -1.9510   27.8920  -26.5640 N.pl3  84  ARG84       0.1354
     79  NH2       -3.9810   27.0120  -27.2620 N.pl3  84  ARG84       0.1354
     80  N         -0.9130   31.1140  -17.3430 N.3    87  ASN87      -0.1225
     81  CA         0.2910   30.3260  -17.6540 C.3    87  ASN87       0.1785
     82  C          1.5040   31.2220  -17.8110 C.2    87  ASN87       0.2597
     83  O          2.5130   31.0390  -17.1260 O.2    87  ASN87      -0.2718
     84  CB         0.0820   29.5880  -18.9820 C.3    87  ASN87       0.1169
     85  CG         1.1640   28.5370  -19.2740 C.2    87  ASN87       0.2627
     86  OD1        1.5000   27.7200  -18.4270 O.2    87  ASN87      -0.2716
     87  ND2        1.6710   28.5380  -20.5010 N.am   87  ASN87      -0.0877
     88  N          1.3980   32.1350  -18.7840 N.am   88  VAL88      -0.1980
     89  CA         2.4830   33.0190  -19.1630 C.3    88  VAL88       0.1595
     90  C          2.8220   34.0030  -18.0460 C.2    88  VAL88       0.2287
     91  O          4.0090   34.3250  -17.8180 O.2    88  VAL88      -0.2864
     92  CB         2.1750   33.7210  -20.5080 C.3    88  VAL88       0.0276
     93  CG1        2.9930   34.9770  -20.6730 C.3    88  VAL88       0.0022
     94  CG2        2.4550   32.7270  -21.6490 C.3    88  VAL88       0.0022
     95  N         10.4850   28.7160  -23.0410 N.3   108  SER108     -0.1202
     96  CA         9.9980   28.1930  -24.3190 C.3   108  SER108      0.2020
     97  C          8.5310   27.8430  -24.1920 C.2   108  SER108      0.2619
     98  O          8.1300   26.6840  -23.9620 O.2   108  SER108     -0.2717
     99  CB        10.8280   27.0290  -24.8560 C.3   108  SER108      0.2103
    100  OG        11.2500   26.1520  -23.8480 O.3   108  SER108     -0.2182
    101  N          7.7400   28.8880  -24.3460 N.am  109  PHE109     -0.1961
    102  CA         6.2850   28.8210  -24.2570 C.3   109  PHE109      0.1771
    103  C          5.8120   29.4050  -25.5620 C.2   109  PHE109      0.2619
    104  O          6.4170   30.3780  -26.0520 O.2   109  PHE109     -0.2715
    105  CB         5.7920   29.7200  -23.1150 C.3   109  PHE109      0.0574
    106  CG         5.9620   29.1060  -21.7400 C.ar  109  PHE109     -0.0200
    107  CD1        4.8510   28.8380  -20.9520 C.ar  109  PHE109     -0.0042
    108  CD2        7.2290   28.8060  -21.2320 C.ar  109  PHE109     -0.0042
    109  CE1        4.9880   28.2640  -19.6680 C.ar  109  PHE109     -0.0003
    110  CE2        7.3670   28.2050  -19.9660 C.ar  109  PHE109     -0.0003
    111  CZ         6.2490   27.9620  -19.1890 C.ar  109  PHE109     -0.0000
    112  N          4.7210   28.8530  -26.0920 N.am  110  ILE110     -0.1963
    113  CA         4.0860   29.3830  -27.3120 C.3   110  ILE110      0.1727
    114  C          3.8920   30.8660  -27.1210 C.2   110  ILE110      0.2617
    115  O          4.2380   31.6380  -27.9900 O.2   110  ILE110     -0.2715
    116  CB         2.7280   28.6930  -27.6110 C.3   110  ILE110      0.0290
    117  CG1        2.9730   27.2610  -28.0720 C.3   110  ILE110      0.0022
    118  CG2        1.8980   29.4540  -28.6810 C.3   110  ILE110      0.0023
    119  CD1        1.6730   26.4740  -28.2350 C.3   110  ILE110      0.0001
    120  N          3.4080   31.2280  -25.9320 N.am  111  SER111     -0.1936
    121  CA         3.1200   32.6050  -25.5260 C.3   111  SER111      0.2040
    122  C          2.5030   33.3810  -26.6870 C.2   111  SER111      0.2485
    123  O          3.1020   34.2790  -27.2640 O.2   111  SER111     -0.2729
    124  CB         4.3340   33.2560  -24.8180 C.3   111  SER111      0.2129
    125  OG         5.5150   33.1340  -25.5660 O.3   111  SER111     -0.2179
    126  N          1.2610   33.0020  -27.0420 N.am  112  PRO112     -0.2726
    127  CA         0.6460   33.4120  -28.2880 C.3   112  PRO112      0.1402
    128  C          0.1090   34.8430  -28.2560 C.2   112  PRO112      0.2269
    129  O         -0.2730   35.3830  -29.2970 O.2   112  PRO112     -0.2865
    130  CB        -0.5020   32.4200  -28.4410 C.3   112  PRO112      0.0296
    131  CG        -0.9390   32.1550  -27.0070 C.3   112  PRO112      0.0237
    132  CD         0.3650   32.1540  -26.2320 C.3   112  PRO112      0.0939
    133  N          4.7690   15.7420  -32.3770 N.3   149  LYS149     -0.1245
    134  CA         3.9420   15.2460  -31.2990 C.3   149  LYS149      0.1561
    135  C          2.5530   14.8180  -31.7820 C.2   149  LYS149      0.2260
    136  O          1.7070   14.4360  -30.9860 O.2   149  LYS149     -0.2867
    137  CB         3.8530   16.2790  -30.1790 C.3   149  LYS149      0.0271
    138  CG         5.2040   16.6970  -29.6140 C.3   149  LYS149      0.0035
    139  CD         4.9910   17.6140  -28.4260 C.3   149  LYS149      0.0206
    140  CE         5.8720   18.8440  -28.4980 C.3   149  LYS149      0.1093
    141  NZ         5.3310   19.8980  -27.6180 N.3   149  LYS149     -0.1314
    142  N          0.2260   16.5940  -32.7670 N.3   151  LEU151     -0.1245
    143  CA        -0.8010   17.5170  -32.2580 C.3   151  LEU151      0.1561
    144  C         -1.5840   18.1930  -33.3620 C.2   151  LEU151      0.2260
    145  O         -2.8000   18.4070  -33.2340 O.2   151  LEU151     -0.2867
    146  CB        -0.1830   18.5860  -31.3530 C.3   151  LEU151      0.0270
    147  CG         0.5860   18.1370  -30.1230 C.3   151  LEU151      0.0019
    148  CD1        1.4370   19.3100  -29.5800 C.3   151  LEU151      0.0001
    149  CD2       -0.3570   17.5620  -29.0610 C.3   151  LEU151      0.0001
    150  N         -8.1000   17.5840  -30.7360 N.3   160  ILE160     -0.1231
    151  CA        -7.6440   18.6070  -29.7790 C.3   160  ILE160      0.1692
    152  C         -8.2590   19.9500  -30.1440 C.2   160  ILE160      0.2592
    153  O         -7.9820   20.4870  -31.2070 O.2   160  ILE160     -0.2718
    154  CB        -6.1030   18.7370  -29.7400 C.3   160  ILE160      0.0266
    155  CG1       -5.4690   17.4210  -29.3010 C.3   160  ILE160      0.0019
    156  CG2       -5.6680   19.9130  -28.8400 C.3   160  ILE160      0.0020
    157  CD1       -3.9350   17.4230  -29.3740 C.3   160  ILE160      0.0001
    158  N         -9.0880   20.4850  -29.2560 N.am  161  LYS161     -0.1966
    159  CA        -9.7010   21.7800  -29.4710 C.3   161  LYS161      0.1728
    160  C         -8.7580   22.9230  -29.0450 C.2   161  LYS161      0.2617
    161  O         -7.8800   22.7510  -28.1870 O.2   161  LYS161     -0.2715
    162  CB       -11.0440   21.8510  -28.7340 C.3   161  LYS161      0.0311
    163  CG       -12.0430   20.7960  -29.1660 C.3   161  LYS161      0.0038
    164  CD       -12.2860   21.0310  -30.6530 C.3   161  LYS161      0.0206
    165  CE       -13.7800   21.0460  -30.9470 C.3   161  LYS161      0.1093
    166  NZ       -13.9720   20.5340  -32.3330 N.3   161  LYS161     -0.1314
    167  N         -8.9170   24.0700  -29.6930 N.am  162  GLY162     -0.1940
    168  CA        -8.2480   25.2950  -29.2960 C.3   162  GLY162      0.2014
    169  C         -6.7530   25.1810  -29.4260 C.2   162  GLY162      0.2639
    170  O         -6.0310   25.6710  -28.5880 O.2   162  GLY162     -0.2714
    171  N         -6.3020   24.5030  -30.4740 N.am  163  PHE163     -0.1959
    172  CA        -4.8830   24.3160  -30.6820 C.3   163  PHE163      0.1771
    173  C         -4.3190   25.5020  -31.4480 C.2   163  PHE163      0.2620
    174  O         -4.8720   25.9060  -32.4870 O.2   163  PHE163     -0.2715
    175  CB        -4.5760   22.9620  -31.3410 C.3   163  PHE163      0.0574
    176  CG        -3.1100   22.6320  -31.3570 C.ar  163  PHE163     -0.0200
    177  CD1       -2.5170   22.0120  -30.2610 C.ar  163  PHE163     -0.0042
    178  CD2       -2.3030   23.0090  -32.4390 C.ar  163  PHE163     -0.0042
    179  CE1       -1.1400   21.7660  -30.2340 C.ar  163  PHE163     -0.0003
    180  CE2       -0.9050   22.7400  -32.4350 C.ar  163  PHE163     -0.0003
    181  CZ        -0.3360   22.1110  -31.3300 C.ar  163  PHE163     -0.0000
    182  N         -3.2250   26.0690  -30.9140 N.am  164  THR164     -0.1951
    183  CA        -2.5890   27.2530  -31.4960 C.3   164  THR164      0.1897
    184  C         -2.3580   27.0710  -32.9930 C.2   164  THR164      0.2313
    185  O         -1.8420   26.0340  -33.4340 O.2   164  THR164     -0.2863
    186  CB        -1.2710   27.6470  -30.7470 C.3   164  THR164      0.1794
    187  OG1       -1.5630   27.8290  -29.3580 O.3   164  THR164     -0.2208
    188  CG2       -0.6340   28.9620  -31.3110 C.3   164  THR164      0.0378
@<TRIPOS>BOND
     1    10     9    2
     2     9     8    1
     3     4     3    2
     4     8     7    1
     5   185   184    2
     6   144   145    2
     7   144   143    1
     8   184   183    1
     9     3     7   am
    10     3     2    1
    11   142   143    1
    12   174   173    2
    13   178   180   ar
    14   178   176   ar
    15   180   181   ar
    16   133   134    1
    17   166   165    1
    18   143   146    1
    19     1     2    1
    20   135   134    1
    21   135   136    2
    22     2     5    1
    23   183   182    1
    24   183   186    1
    25   173   182   am
    26   173   172    1
    27     5     6    1
    28   176   175    1
    29   176   177   ar
    30   146   147    1
    31   175   172    1
    32   181   179   ar
    33   188   186    1
    34   134   137    1
    35   153   152    2
    36   165   164    1
    37   186   187    1
    38   150   151    1
    39   172   171    1
    40   164   163    1
    41    11    12    1
    42   171   169   am
    43   177   179   ar
    44   137   138    1
    45   152   151    1
    46   152   158   am
    47   147   148    1
    48   147   149    1
    49   151   154    1
    50   154   155    1
    51   154   156    1
    52   167   168    1
    53   167   160   am
    54   138   139    1
    55   159   158    1
    56   159   160    1
    57   159   162    1
    58    19    18    1
    59   169   168    1
    60   169   170    2
    61   157   155    1
    62    16    15    1
    63    16    17    1
    64   129   128    2
    65    12    15    1
    66    12    13    1
    67   163   162    1
    68   160   161    2
    69   118   116    1
    70   140   139    1
    71   140   141    1
    72    17    18    1
    73   130   127    1
    74   130   131    1
    75    13    20   am
    76    13    14    2
    77   127   128    1
    78   127   126    1
    79   119   117    1
    80    20    21    1
    81   117   116    1
    82   115   114    2
    83    22    21    1
    84    22    23    2
    85   116   113    1
    86   113   114    1
    87   113   112    1
    88   123   122    2
    89    79    77    1
    90    21    24    1
    91   114   120   am
    92   126   122   am
    93   126   132    1
    94   131   132    1
    95    24    25    1
    96    24    26    1
    97   122   121    1
    98    78    77    1
    99    77    76    2
   100   112   103   am
   101   104   103    2
   102   120   121    1
   103    76    75    1
   104   125   124    1
   105   103   102    1
   106   121   124    1
   107    46    44   ar
   108    75    74    1
   109    99    96    1
   110    99   100    1
   111    61    60    2
   112   101   102    1
   113   101    97   am
   114    96    97    1
   115    96    95    1
   116   102   105    1
   117    97    98    2
   118    62    63    1
   119    62    59    1
   120    45    44   ar
   121    44    43    1
   122    34    32   ar
   123    64    63   ar
   124    64    66   ar
   125    63    65   ar
   126    66    68   ar
   127    60    59    1
   128    74    73    1
   129    65    67   ar
   130    68    67   ar
   131   105   106    1
   132    59    58    1
   133    32    33   ar
   134    32    31    1
   135    73    70    1
   136    43    40    1
   137    39    40    1
   138    39    37   am
   139    40    41    1
   140    35    36    1
   141    35    29   am
   142   106   108   ar
   143   106   107   ar
   144    31    28    1
   145    94    92    1
   146    36    37    1
   147    70    71    1
   148    70    69    1
   149    37    38    2
   150   108   110   ar
   151    28    29    1
   152    28    27    1
   153    57    55    1
   154    54    55    2
   155    54    53    1
   156   107   109   ar
   157    71    72    2
   158    29    30    2
   159    55    56    1
   160    53    52    1
   161    93    92    1
   162    92    89    1
   163    87    85   am
   164    41    42    2
   165   110   111   ar
   166   109   111   ar
   167    85    84    1
   168    85    86    2
   169    52    51    1
   170    89    88    1
   171    89    90    1
   172    84    81    1
   173    51    48    1
   174    88    82   am
   175    90    91    2
   176    82    81    1
   177    82    83    2
   178    81    80    1
   179    48    47    1
   180    48    49    1
   181    49    50    2
