@<TRIPOS>MOLECULE
tmp/2og2A00.pdb
 70 67 0 0 0
SMALL
GASTEIGER

@<TRIPOS>ATOM
      1  N        -19.8270  -27.8730  -13.3480 N.3   108  VAL108     -0.1231
      2  CA       -18.7120  -27.8100  -14.2830 C.3   108  VAL108      0.1692
      3  C        -18.6180  -26.4280  -14.9300 C.2   108  VAL108      0.2592
      4  O        -19.5260  -25.6040  -14.7860 O.2   108  VAL108     -0.2718
      5  CB       -18.8560  -28.8820  -15.3680 C.3   108  VAL108      0.0266
      6  CG1      -18.8420  -30.2690  -14.7500 C.3   108  VAL108      0.0020
      7  CG2      -20.1370  -28.6560  -16.1660 C.3   108  VAL108      0.0020
      8  N        -17.5160  -26.1760  -15.6370 N.am  109  ASN109     -0.1960
      9  CA       -17.2840  -24.8760  -16.2580 C.3   109  ASN109      0.1819
     10  C        -18.4190  -24.4470  -17.1770 C.2   109  ASN109      0.2622
     11  O        -18.9840  -25.2630  -17.9000 O.2   109  ASN109     -0.2715
     12  CB       -15.9650  -24.8740  -17.0470 C.3   109  ASN109      0.1195
     13  CG       -14.7630  -25.1730  -16.1770 C.2   109  ASN109      0.2630
     14  OD1      -14.8040  -25.0420  -14.9470 O.2   109  ASN109     -0.2716
     15  ND2      -13.6870  -25.5830  -16.8080 N.am  109  ASN109     -0.0877
     16  N        -18.7270  -23.1520  -17.1590 N.am  110  GLY110     -0.1940
     17  CA       -19.7240  -22.5880  -18.0510 C.3   110  GLY110      0.2014
     18  C        -21.0970  -22.4630  -17.4070 C.2   110  GLY110      0.2639
     19  O        -21.9830  -21.8030  -17.9480 O.2   110  GLY110     -0.2714
     20  N        -21.2600  -23.0870  -16.2400 N.am  111  GLY111     -0.1939
     21  CA       -22.5350  -23.1180  -15.5520 C.3   111  GLY111      0.2014
     22  C        -22.8020  -21.9580  -14.6140 C.2   111  GLY111      0.2639
     23  O        -23.9040  -21.8190  -14.1140 O.2   111  GLY111     -0.2714
     24  N        -21.8060  -21.1120  -14.3860 N.am  112  GLY112     -0.1939
     25  CA       -21.9650  -19.9960  -13.4660 C.3   112  GLY112      0.2014
     26  C        -21.9010  -20.3900  -11.9920 C.2   112  GLY112      0.2639
     27  O        -22.5140  -19.7290  -11.1540 O.2   112  GLY112     -0.2714
     28  N        -21.1450  -21.4430  -11.6800 N.am  113  LYS113     -0.1963
     29  CA       -21.0300  -21.9720  -10.3070 C.3   113  LYS113      0.1728
     30  C        -20.5590  -20.9190   -9.3070 C.2   113  LYS113      0.2617
     31  O        -21.2330  -20.6480   -8.3020 O.2   113  LYS113     -0.2715
     32  CB       -20.0920  -23.1960  -10.2770 C.3   113  LYS113      0.0311
     33  CG       -19.5790  -23.5870   -8.8960 C.3   113  LYS113      0.0038
     34  CD       -18.7240  -24.8490   -8.9240 C.3   113  LYS113      0.0206
     35  CE       -17.3530  -24.5960   -9.5660 C.3   113  LYS113      0.1093
     36  NZ       -16.6400  -23.4510   -8.9190 N.3   113  LYS113     -0.1314
     37  N        -19.3970  -20.3260   -9.5770 N.am  114  THR114     -0.1937
     38  CA       -18.8000  -19.3720   -8.6460 C.3   114  THR114      0.2028
     39  C        -19.5830  -18.0710   -8.5840 C.2   114  THR114      0.2642
     40  O        -19.7790  -17.5150   -7.5080 O.2   114  THR114     -0.2714
     41  CB       -17.3270  -19.0940   -9.0010 C.3   114  THR114      0.1808
     42  OG1      -16.5820  -20.3060   -8.8620 O.3   114  THR114     -0.2208
     43  CG2      -16.7330  -18.0380   -8.0890 C.3   114  THR114      0.0379
     44  N        -20.0360  -17.6060   -9.7450 N.am  115  THR115     -0.1950
     45  CA       -20.8920  -16.4280   -9.8590 C.3   115  THR115      0.1897
     46  C        -22.2220  -16.5750   -9.1040 C.2   115  THR115      0.2313
     47  O        -22.6730  -15.6490   -8.4260 O.2   115  THR115     -0.2863
     48  CB       -21.2110  -16.1560  -11.3400 C.3   115  THR115      0.1794
     49  OG1      -19.9860  -15.9420  -12.0420 O.3   115  THR115     -0.2208
     50  CG2      -22.1050  -14.9540  -11.4950 C.3   115  THR115      0.0378
     51  N         -9.3430  -23.7190  -10.0600 N.3   140  ARG140     -0.1245
     52  CA        -9.4090  -22.5000  -10.8700 C.3   140  ARG140      0.1563
     53  C         -8.9830  -21.2590  -10.0890 C.2   140  ARG140      0.2260
     54  O         -9.7480  -20.7330   -9.2870 O.2   140  ARG140     -0.2867
     55  CB       -10.8320  -22.3060  -11.4210 C.3   140  ARG140      0.0307
     56  CG       -11.3110  -23.4440  -12.3320 C.3   140  ARG140      0.0489
     57  CD       -12.6960  -23.1540  -12.9530 C.3   140  ARG140      0.2205
     58  NE       -13.6720  -22.6610  -11.9780 N.pl3 140  ARG140     -0.0865
     59  CZ       -14.8890  -22.2370  -12.3100 C.cat 140  ARG140      0.5346
     60  NH1      -15.2700  -22.2620  -13.5910 N.pl3 140  ARG140      0.1354
     61  NH2      -15.7240  -21.7890  -11.3770 N.pl3 140  ARG140      0.1354
     62  N        -28.2240  -18.7730  -16.8770 N.3   255  LYS255     -0.1245
     63  CA       -28.1290  -18.3150  -18.2690 C.3   255  LYS255      0.1561
     64  C        -29.4430  -18.4860  -19.0130 C.2   255  LYS255      0.2260
     65  O        -29.4580  -18.4820  -20.2440 O.2   255  LYS255     -0.2867
     66  CB       -27.0330  -19.0700  -19.0390 C.3   255  LYS255      0.0271
     67  CG       -25.8090  -19.4690  -18.2390 C.3   255  LYS255      0.0035
     68  CD       -24.8950  -18.3000  -17.9830 C.3   255  LYS255      0.0206
     69  CE       -23.6030  -18.7570  -17.3350 C.3   255  LYS255      0.1093
     70  NZ       -22.9090  -17.6010  -16.6930 N.3   255  LYS255     -0.1314
@<TRIPOS>BOND
     1    65    64    2
     2    66    63    1
     3    66    67    1
     4    64    63    1
     5    63    62    1
     6    67    68    1
     7    17    18    1
     8    17    16    1
     9    68    69    1
    10    19    18    2
    11    11    10    2
    12    18    20   am
    13    69    70    1
    14    10    16   am
    15    10     9    1
    16    12     9    1
    17    12    13    1
    18    15    13   am
    19     9     8    1
    20    20    21    1
    21    13    14    2
    22     7     5    1
    23     8     3   am
    24    21    22    1
    25     5     6    1
    26     5     2    1
    27     3     4    2
    28     3     2    1
    29    22    24   am
    30    22    23    2
    31    24    25    1
    32     2     1    1
    33    60    59    1
    34    25    26    1
    35    57    56    1
    36    57    58    1
    37    56    55    1
    38    59    58    2
    39    59    61    1
    40    49    48    1
    41    26    28   am
    42    26    27    2
    43    28    29    1
    44    50    48    1
    45    55    52    1
    46    48    45    1
    47    52    53    1
    48    52    51    1
    49    29    32    1
    50    29    30    1
    51    32    33    1
    52    53    54    2
    53    45    44    1
    54    45    46    1
    55    44    39   am
    56    37    30   am
    57    37    38    1
    58    35    34    1
    59    35    36    1
    60    30    31    2
    61    46    47    2
    62    41    42    1
    63    41    38    1
    64    41    43    1
    65    34    33    1
    66    38    39    1
    67    39    40    2
