@<TRIPOS>MOLECULE
tmp/2og7A00.pdb
 115 109 0 0 0
SMALL
GASTEIGER

@<TRIPOS>ATOM
      1  N          2.1000   59.4210  -24.2210 N.3   115  GLU115     -0.1245
      2  CA         1.3280   58.6560  -23.2560 C.3   115  GLU115      0.1567
      3  C         -0.1200   58.4780  -23.7000 C.2   115  GLU115      0.2260
      4  O         -0.8270   59.4730  -23.8980 O.2   115  GLU115     -0.2867
      5  CB         1.3260   59.3900  -21.9200 C.3   115  GLU115      0.0388
      6  CG         0.4240   58.7730  -20.8900 C.3   115  GLU115      0.1160
      7  CD         0.4100   59.5510  -19.6040 C.2   115  GLU115      0.3649
      8  OE1        0.1470   60.7780  -19.6420 O.co2 115  GLU115     -0.2457
      9  OE2        0.6630   58.9170  -18.5560 O.co2 115  GLU115     -0.2457
     10  N          4.3870   50.0240  -12.8710 N.3   134  GLN134     -0.1231
     11  CA         4.0580   51.2110  -12.0900 C.3   134  GLN134      0.1698
     12  C          3.3150   52.1860  -12.9820 C.2   134  GLN134      0.2593
     13  O          3.8670   53.1890  -13.4360 O.2   134  GLN134     -0.2718
     14  CB         5.3210   51.8490  -11.5150 C.3   134  GLN134      0.0381
     15  CG         5.9510   51.0210  -10.4120 C.3   134  GLN134      0.0905
     16  CD         5.0410   50.9230   -9.2070 C.2   134  GLN134      0.2608
     17  OE1        4.6440   51.9400   -8.6390 O.2   134  GLN134     -0.2717
     18  NE2        4.6920   49.6950   -8.8190 N.am  134  GLN134     -0.0878
     19  N          2.0550   51.8730  -13.2470 N.am  135  GLY135     -0.1942
     20  CA         1.2520   52.7130  -14.1010 C.3   135  GLY135      0.2014
     21  C         -0.1800   52.2460  -14.1950 C.2   135  GLY135      0.2638
     22  O         -0.6020   51.3200  -13.4960 O.2   135  GLY135     -0.2714
     23  N         -0.9120   52.8800  -15.0970 N.am  136  ASN136     -0.1972
     24  CA        -2.3660   52.7230  -15.1710 C.3   136  ASN136      0.1688
     25  C         -2.8560   51.3050  -15.4700 C.2   136  ASN136      0.2292
     26  O         -3.9890   50.9750  -15.1250 O.2   136  ASN136     -0.2864
     27  CB        -2.9380   53.6950  -16.2030 C.3   136  ASN136      0.1181
     28  CG        -2.4060   53.4330  -17.5970 C.2   136  ASN136      0.2629
     29  OD1       -2.8220   52.4780  -18.2480 O.2   136  ASN136     -0.2716
     30  ND2       -1.4760   54.2810  -18.0640 N.am  136  ASN136     -0.0877
     31  N          0.7970   50.5430   -6.5170 N.3   142  LEU142     -0.1245
     32  CA         1.2610   51.6750   -7.3110 C.3   142  LEU142      0.1561
     33  C          1.7620   52.7510   -6.3640 C.2   142  LEU142      0.2260
     34  O          0.9950   53.3030   -5.5630 O.2   142  LEU142     -0.2867
     35  CB         0.1270   52.2070   -8.1790 C.3   142  LEU142      0.0270
     36  CG         0.4110   53.4450   -9.0280 C.3   142  LEU142      0.0019
     37  CD1        1.5590   53.1710   -9.9910 C.3   142  LEU142      0.0001
     38  CD2       -0.8570   53.8750   -9.7810 C.3   142  LEU142      0.0001
     39  N          2.9140   59.2420   -6.4230 N.3   145  HIS145     -0.1226
     40  CA         3.5420   60.1070   -7.4110 C.3   145  HIS145      0.1752
     41  C          2.6580   61.2990   -7.7140 C.2   145  HIS145      0.2596
     42  O          1.4290   61.2250   -7.6220 O.2   145  HIS145     -0.2718
     43  CB         3.8160   59.3420   -8.7130 C.3   145  HIS145      0.0759
     44  CG         2.5770   58.7990   -9.3640 C.ar  145  HIS145      0.0818
     45  ND1        2.0020   57.6060   -8.9730 N.ar  145  HIS145     -0.2268
     46  CD2        1.7950   59.2870  -10.3590 C.ar  145  HIS145      0.1154
     47  CE1        0.9190   57.3870   -9.7030 C.ar  145  HIS145      0.1986
     48  NE2        0.7710   58.3910  -10.5490 N.ar  145  HIS145     -0.2212
     49  N          3.3000   62.4090   -8.0700 N.am  146  ASN146     -0.1960
     50  CA         2.6250   63.4330   -8.8550 C.3   146  ASN146      0.1819
     51  C          2.5330   62.9070  -10.2740 C.2   146  ASN146      0.2621
     52  O          3.4530   62.2500  -10.7660 O.2   146  ASN146     -0.2715
     53  CB         3.4000   64.7520   -8.8550 C.3   146  ASN146      0.1195
     54  CG         3.4730   65.3850   -7.4900 C.2   146  ASN146      0.2630
     55  OD1        4.5290   65.4170   -6.8840 O.2   146  ASN146     -0.2716
     56  ND2        2.3470   65.8760   -6.9920 N.am  146  ASN146     -0.0877
     57  N          1.4230   63.1790  -10.9320 N.am  147  GLU147     -0.1963
     58  CA         1.2370   62.7120  -12.2880 C.3   147  GLU147      0.1733
     59  C          2.2580   63.3660  -13.2040 C.2   147  GLU147      0.2616
     60  O          2.4180   64.5830  -13.1790 O.2   147  GLU147     -0.2715
     61  CB        -0.1480   63.0850  -12.7700 C.3   147  GLU147      0.0429
     62  CG        -0.6090   62.3310  -13.9930 C.3   147  GLU147      0.1163
     63  CD        -0.9750   60.8950  -13.7160 C.2   147  GLU147      0.3649
     64  OE1       -0.8810   60.4240  -12.5570 O.co2 147  GLU147     -0.2457
     65  OE2       -1.3720   60.2130  -14.6770 O.co2 147  GLU147     -0.2457
     66  N          2.9550   62.5460  -13.9860 N.am  148  ASN148     -0.1972
     67  CA         3.9070   63.0170  -14.9790 C.3   148  ASN148      0.1688
     68  C          4.8580   64.0570  -14.3820 C.2   148  ASN148      0.2292
     69  O          5.1290   65.1060  -14.9690 O.2   148  ASN148     -0.2864
     70  CB         3.1650   63.5310  -16.2250 C.3   148  ASN148      0.1181
     71  CG         2.2420   62.4680  -16.8600 C.2   148  ASN148      0.2629
     72  OD1        1.3920   62.7810  -17.7150 O.2   148  ASN148     -0.2716
     73  ND2        2.4110   61.2270  -16.4600 N.am  148  ASN148     -0.0877
     74  N          7.3520   58.5860  -16.4170 N.3   203  PRO203     -0.2116
     75  CA         6.8400   57.2950  -15.9740 C.3   203  PRO203      0.1372
     76  C          6.8330   56.2970  -17.1360 C.2   203  PRO203      0.2244
     77  O          6.9280   56.7050  -18.3010 O.2   203  PRO203     -0.2868
     78  CB         5.4140   57.6180  -15.5200 C.3   203  PRO203      0.0268
     79  CG         5.0460   58.8740  -16.2070 C.3   203  PRO203      0.0207
     80  CD         6.3040   59.6190  -16.5000 C.3   203  PRO203      0.0892
     81  N          4.5210   54.7970  -18.5820 N.3   205  SER205     -0.1217
     82  CA         3.4530   55.0470  -19.5490 C.3   205  SER205      0.1889
     83  C          3.9670   55.8600  -20.7340 C.2   205  SER205      0.2288
     84  O          3.4000   55.8040  -21.8300 O.2   205  SER205     -0.2866
     85  CB         2.2910   55.7700  -18.8770 C.3   205  SER205      0.2089
     86  OG         2.7120   57.0270  -18.3890 O.3   205  SER205     -0.2183
     87  N          8.0150   61.4710   -7.6350 N.3   231  ASP231     -0.1239
     88  CA         7.4660   60.1850   -8.0350 C.3   231  ASP231      0.1674
     89  C          8.3400   59.1620   -7.3370 C.2   231  ASP231      0.2266
     90  O          9.5110   59.0550   -7.6520 O.2   231  ASP231     -0.2867
     91  CB         7.5510   60.0230   -9.5540 C.3   231  ASP231      0.1410
     92  CG         6.9990   58.7030  -10.0510 C.2   231  ASP231      0.3668
     93  OD1        7.1540   57.6790   -9.3500 O.co2 231  ASP231     -0.2456
     94  OD2        6.4120   58.6950  -11.1590 O.co2 231  ASP231     -0.2456
     95  N         -0.6340   60.6900   -5.6480 N.3   277  HIS277     -0.1241
     96  CA        -1.5740   59.5860   -5.6100 C.3   277  HIS277      0.1621
     97  C         -0.8990   58.2540   -5.9160 C.2   277  HIS277      0.2264
     98  O          0.1950   58.1840   -6.4720 O.2   277  HIS277     -0.2867
     99  CB        -2.7520   59.8380   -6.5360 C.3   277  HIS277      0.0745
    100  CG        -2.3830   59.8800   -7.9780 C.ar  277  HIS277      0.0817
    101  ND1       -1.9130   61.0200   -8.5870 N.ar  277  HIS277     -0.2268
    102  CD2       -2.3870   58.9150   -8.9300 C.ar  277  HIS277      0.1154
    103  CE1       -1.6650   60.7660   -9.8600 C.ar  277  HIS277      0.1986
    104  NE2       -1.9410   59.4940  -10.0950 N.ar  277  HIS277     -0.2212
    105  N         -9.8030   58.8010  -17.2100 N.3   295  ARG295     -0.1245
    106  CA        -8.9270   59.8190  -16.6740 C.3   295  ARG295      0.1563
    107  C         -8.7390   60.9490  -17.6680 C.2   295  ARG295      0.2260
    108  O         -8.4770   60.7080  -18.8520 O.2   295  ARG295     -0.2867
    109  CB        -7.5570   59.2150  -16.3680 C.3   295  ARG295      0.0307
    110  CG        -6.6060   60.1700  -15.6580 C.3   295  ARG295      0.0489
    111  CD        -5.2890   59.5010  -15.3370 C.3   295  ARG295      0.2205
    112  NE        -4.5200   59.2030  -16.5440 N.pl3 295  ARG295     -0.0865
    113  CZ        -3.4690   58.3900  -16.5730 C.cat 295  ARG295      0.5346
    114  NH1       -3.0650   57.7770  -15.4700 N.pl3 295  ARG295      0.1354
    115  NH2       -2.8200   58.1850  -17.7100 N.pl3 295  ARG295      0.1354
@<TRIPOS>BOND
     1     1     2    1
     2     4     3    2
     3     3     2    1
     4     2     5    1
     5     5     6    1
     6    84    83    2
     7     6     7    1
     8    83    82    1
     9     8     7   ar
    10     7     9   ar
    11    82    85    1
    12    82    81    1
    13    85    86    1
    14   108   107    2
    15    77    76    2
    16    29    28    2
    17    30    28   am
    18    72    71    2
    19   115   113    1
    20   107   106    1
    21    28    27    1
    22   105   106    1
    23    76    75    1
    24    71    73   am
    25    71    70    1
    26   106   109    1
    27   113   112    2
    28   113   114    1
    29   112   111    1
    30    80    74    1
    31    80    79    1
    32    74    75    1
    33   109   110    1
    34    70    67    1
    35    79    78    1
    36    27    24    1
    37    75    78    1
    38   110   111    1
    39    25    24    1
    40    25    26    2
    41    24    23    1
    42    23    21   am
    43    67    68    1
    44    67    66    1
    45    69    68    2
    46    65    63   ar
    47    21    20    1
    48    21    22    2
    49    20    19    1
    50    62    63    1
    51    62    61    1
    52    66    59   am
    53    63    64   ar
    54    13    12    2
    55    19    12   am
    56    59    60    2
    57    59    58    1
    58    12    11    1
    59    10    11    1
    60    61    58    1
    61    58    57    1
    62    11    14    1
    63    14    15    1
    64    94    92   ar
    65    57    51   am
    66    52    51    2
    67    48    46   ar
    68    48    47   ar
    69    15    16    1
    70    46    44   ar
    71    51    50    1
    72   104   103   ar
    73   104   102   ar
    74    92    91    1
    75    92    93   ar
    76    37    36    1
    77   103   101   ar
    78    38    36    1
    79    47    45   ar
    80    91    88    1
    81    44    45   ar
    82    44    43    1
    83    16    18   am
    84    16    17    2
    85    36    35    1
    86   102   100   ar
    87    50    53    1
    88    50    49    1
    89    53    54    1
    90    43    40    1
    91   101   100   ar
    92    35    32    1
    93    49    41   am
    94    88    87    1
    95    88    89    1
    96   100    99    1
    97    41    42    2
    98    41    40    1
    99    90    89    2
   100    54    56   am
   101    54    55    2
   102    40    39    1
   103    32    31    1
   104    32    33    1
   105    99    96    1
   106    98    97    2
   107    33    34    2
   108    97    96    1
   109    95    96    1
