@<TRIPOS>MOLECULE
tmp/2ogaA00.pdb
 157 148 0 0 0
SMALL
GASTEIGER

@<TRIPOS>ATOM
      1  N         16.2860  -45.7390    2.1150 N.3    60  SER60      -0.1202
      2  CA        16.4600  -44.5530    2.9240 C.3    60  SER60       0.2020
      3  C         17.0010  -43.4050    2.1280 C.2    60  SER60       0.2619
      4  O         17.3930  -43.5860    0.9690 O.2    60  SER60      -0.2717
      5  CB        17.4040  -44.8510    4.0720 C.3    60  SER60       0.2103
      6  OG        18.7340  -44.9870    3.5900 O.3    60  SER60      -0.2182
      7  N         17.0250  -42.2320    2.7720 N.am   61  GLY61      -0.1942
      8  CA        17.5350  -41.0280    2.1180 C.3    61  GLY61       0.2014
      9  C         19.0350  -41.1380    1.8430 C.2    61  GLY61       0.2638
     10  O         19.5490  -40.6450    0.8350 O.2    61  GLY61      -0.2714
     11  N         19.7510  -41.8000    2.7570 N.am   62  MET62      -0.1976
     12  CA        21.1770  -41.9670    2.5550 C.3    62  MET62       0.1605
     13  C         21.4410  -42.8540    1.3600 C.2    62  MET62       0.2287
     14  O         22.2610  -42.5160    0.5290 O.2    62  MET62      -0.2864
     15  CB        21.9460  -42.5350    3.7440 C.3    62  MET62       0.0413
     16  CG        23.4470  -42.4860    3.4490 C.3    62  MET62       0.0598
     17  SD        24.5040  -42.7460    4.8850 S.3    62  MET62      -0.1393
     18  CE        23.5310  -43.9930    5.7560 C.3    62  MET62       0.0692
     19  N         20.9470  -41.0580   -1.9210 N.3    65  LEU65      -0.1245
     20  CA        22.0750  -40.2260   -2.2910 C.3    65  LEU65       0.1561
     21  C         23.2000  -41.1140   -2.8170 C.2    65  LEU65       0.2260
     22  O         23.7680  -40.9030   -3.9010 O.2    65  LEU65      -0.2867
     23  CB        22.5550  -39.3720   -1.1080 C.3    65  LEU65       0.0270
     24  CG        21.5940  -38.2730   -0.6580 C.3    65  LEU65       0.0019
     25  CD1       22.0330  -37.8030    0.7120 C.3    65  LEU65       0.0001
     26  CD2       21.6020  -37.0790   -1.6160 C.3    65  LEU65       0.0001
     27  N         22.8760  -32.3930    7.4460 N.3    87  TYR87      -0.1241
     28  CA        22.7920  -33.6260    8.2330 C.3    87  TYR87       0.1605
     29  C         23.9530  -34.5200    7.7550 C.2    87  TYR87       0.2264
     30  O         24.2310  -34.5920    6.5490 O.2    87  TYR87      -0.2867
     31  CB        21.4650  -34.4240    7.9960 C.3    87  TYR87       0.0534
     32  CG        21.4460  -35.6920    8.8170 C.ar   87  TYR87      -0.0201
     33  CD1       21.7150  -35.5950   10.1820 C.ar   87  TYR87      -0.0009
     34  CD2       21.1900  -36.9580    8.2740 C.ar   87  TYR87      -0.0009
     35  CE1       21.7080  -36.7210   11.0070 C.ar   87  TYR87       0.0417
     36  CE2       21.1840  -38.1050    9.0770 C.ar   87  TYR87       0.0417
     37  CZ        21.4540  -37.9750   10.4450 C.ar   87  TYR87       0.1957
     38  OH        21.4780  -39.0700   11.2770 O.3    87  TYR87      -0.2866
     39  N         24.3590  -37.5710    6.9540 N.3    89  ALA89      -0.1231
     40  CA        24.0620  -38.4700    5.8580 C.3    89  ALA89       0.1694
     41  C         24.5810  -37.9670    4.5120 C.2    89  ALA89       0.2592
     42  O         25.0970  -38.7240    3.7050 O.2    89  ALA89      -0.2718
     43  CB        22.5760  -38.7690    5.8430 C.3    89  ALA89       0.0304
     44  N         24.4330  -36.6740    4.2750 N.am   90  SER90      -0.1952
     45  CA        24.8970  -36.0900    3.0310 C.3    90  SER90       0.1924
     46  C         26.3640  -36.4230    2.7820 C.2    90  SER90       0.2314
     47  O         26.7440  -36.7800    1.6790 O.2    90  SER90      -0.2863
     48  CB        24.6710  -34.5800    2.9550 C.3    90  SER90       0.2116
     49  OG        23.4100  -34.2130    3.5080 O.3    90  SER90      -0.2180
     50  N         22.0230  -29.2700   -0.4360 N.3   132  VAL132     -0.1245
     51  CA        20.9840  -29.7620    0.4530 C.3   132  VAL132      0.1561
     52  C         19.9210  -28.6690    0.6100 C.2   132  VAL132      0.2260
     53  O         20.2460  -27.5340    0.9640 O.2   132  VAL132     -0.2867
     54  CB        21.5510  -30.0920    1.8610 C.3   132  VAL132      0.0252
     55  CG1       20.4510  -30.5760    2.8100 C.3   132  VAL132      0.0019
     56  CG2       22.7160  -31.0900    1.8230 C.3   132  VAL132      0.0019
     57  N         18.0340  -27.6990    2.8880 N.3   134  LEU134     -0.1245
     58  CA        17.8880  -27.8040    4.3440 C.3   134  LEU134      0.1561
     59  C         16.6740  -27.1020    4.9570 C.2   134  LEU134      0.2260
     60  O         16.3120  -25.9890    4.5800 O.2   134  LEU134     -0.2867
     61  CB        19.2360  -27.4310    5.0240 C.3   134  LEU134      0.0270
     62  CG        19.4690  -28.0950    6.3660 C.3   134  LEU134      0.0019
     63  CD1       19.7850  -29.5830    6.1560 C.3   134  LEU134      0.0001
     64  CD2       20.6130  -27.4340    7.1060 C.3   134  LEU134      0.0001
     65  N         20.0960  -33.2550   -2.1080 N.3   158  ASP158     -0.1239
     66  CA        19.6610  -33.8660   -0.8930 C.3   158  ASP158      0.1674
     67  C         18.3590  -33.1310   -0.5540 C.2   158  ASP158      0.2266
     68  O         18.3790  -32.0310    0.0130 O.2   158  ASP158     -0.2867
     69  CB        20.6440  -33.7750    0.2900 C.3   158  ASP158      0.1410
     70  CG        20.0820  -34.5580    1.4460 C.2   158  ASP158      0.3668
     71  OD1       18.9430  -34.9920    1.4490 O.co2 158  ASP158     -0.2456
     72  OD2       20.9080  -34.7200    2.4440 O.co2 158  ASP158     -0.2456
     73  N         15.7480  -34.5720    1.2520 N.3   160  ALA160     -0.1231
     74  CA        15.0990  -35.3130    2.3350 C.3   160  ALA160      0.1694
     75  C         14.2150  -34.4860    3.2680 C.2   160  ALA160      0.2591
     76  O         13.3550  -35.0420    3.9610 O.2   160  ALA160     -0.2718
     77  CB        16.1080  -36.0890    3.1640 C.3   160  ALA160      0.0304
     78  N         14.4420  -33.1660    3.3010 N.am  161  GLN161     -0.1979
     79  CA        13.6820  -32.2390    4.1360 C.3   161  GLN161      0.1601
     80  C         12.9540  -31.2190    3.2940 C.2   161  GLN161      0.2287
     81  O         12.5800  -30.1870    3.8420 O.2   161  GLN161     -0.2864
     82  CB        14.6130  -31.3970    5.0560 C.3   161  GLN161      0.0394
     83  CG        15.4630  -32.2090    6.0470 C.3   161  GLN161      0.0908
     84  CD        16.2930  -31.3490    7.0090 C.2   161  GLN161      0.2608
     85  OE1       16.2690  -30.1190    7.0010 O.2   161  GLN161     -0.2717
     86  NE2       17.0380  -32.0050    7.8650 N.am  161  GLN161     -0.0878
     87  N         13.9510  -38.7410    1.5380 N.3   182  SER182     -0.1217
     88  CA        13.8270  -39.6800    2.6500 C.3   182  SER182      0.1889
     89  C         12.3380  -39.7680    2.9730 C.2   182  SER182      0.2288
     90  O         11.6340  -38.7660    2.7950 O.2   182  SER182     -0.2866
     91  CB        14.5490  -39.2370    3.9120 C.3   182  SER182      0.2089
     92  OG        14.2080  -40.1030    4.9780 O.3   182  SER182     -0.2183
     93  N         11.5920  -41.2510    5.9610 N.3   184  TYR184     -0.1241
     94  CA        11.7780  -41.5350    7.3730 C.3   184  TYR184      0.1605
     95  C         10.5430  -40.9630    8.0930 C.2   184  TYR184      0.2264
     96  O         10.0430  -39.8940    7.7210 O.2   184  TYR184     -0.2867
     97  CB        13.1670  -41.0240    7.8380 C.3   184  TYR184      0.0534
     98  CG        13.3750  -40.8830    9.3300 C.ar  184  TYR184     -0.0201
     99  CD1       13.9820  -41.8990   10.0750 C.ar  184  TYR184     -0.0009
    100  CD2       12.9690  -39.7110    9.9700 C.ar  184  TYR184     -0.0009
    101  CE1       14.1720  -41.7800   11.4500 C.ar  184  TYR184      0.0417
    102  CE2       13.1620  -39.5710   11.3410 C.ar  184  TYR184      0.0417
    103  CZ        13.7540  -40.6030   12.0700 C.ar  184  TYR184      0.1957
    104  OH        13.9280  -40.4510   13.4200 O.3   184  TYR184     -0.2866
    105  N          9.9690  -37.1690    8.4010 N.3   187  LYS187     -0.1245
    106  CA        10.1160  -36.2070    7.3150 C.3   187  LYS187      0.1561
    107  C          8.7360  -35.6650    6.9600 C.2   187  LYS187      0.2260
    108  O          7.7570  -36.1950    7.4720 O.2   187  LYS187     -0.2867
    109  CB        10.7560  -36.8290    6.0790 C.3   187  LYS187      0.0271
    110  CG        12.1400  -37.3940    6.3340 C.3   187  LYS187      0.0035
    111  CD        13.0460  -36.4080    7.0670 C.3   187  LYS187      0.0206
    112  CE        14.4330  -36.9550    7.3400 C.3   187  LYS187      0.1093
    113  NZ        15.0930  -36.2540    8.4570 N.3   187  LYS187     -0.1314
    114  N         11.7080  -47.1160    7.6510 N.3   194  ASP194     -0.1225
    115  CA        12.6440  -46.4070    6.8030 C.3   194  ASP194      0.1805
    116  C         12.2340  -46.5470    5.3440 C.2   194  ASP194      0.2598
    117  O         11.5980  -47.5070    4.9540 O.2   194  ASP194     -0.2718
    118  CB        14.0830  -46.9340    6.9820 C.3   194  ASP194      0.1424
    119  CG        14.7760  -46.3420    8.1730 C.2   194  ASP194      0.3668
    120  OD1       14.9290  -45.1470    8.3520 O.co2 194  ASP194     -0.2456
    121  OD2       15.1810  -47.2610    9.0030 O.co2 194  ASP194     -0.2456
    122  N         12.6310  -45.5870    4.5310 N.am  195  GLY195     -0.1957
    123  CA        12.3270  -45.5870    3.1130 C.3   195  GLY195      0.1869
    124  C         12.8990  -44.3440    2.4590 C.2   195  GLY195      0.2309
    125  O         13.2680  -43.3840    3.1250 O.2   195  GLY195     -0.2863
    126  N         10.3390  -27.8890    6.7290 N.3   285  HIS285     -0.1241
    127  CA        10.4900  -29.1680    7.3690 C.3   285  HIS285      0.1621
    128  C         10.7270  -28.9050    8.8430 C.2   285  HIS285      0.2264
    129  O         10.2590  -29.6120    9.7700 O.2   285  HIS285     -0.2867
    130  CB        11.6850  -29.9280    6.7440 C.3   285  HIS285      0.0745
    131  CG        11.9110  -31.1310    7.5770 C.ar  285  HIS285      0.0817
    132  ND1       13.0530  -31.2880    8.3440 N.ar  285  HIS285     -0.2268
    133  CD2       11.0890  -32.1830    7.7950 C.ar  285  HIS285      0.1154
    134  CE1       12.9200  -32.4500    8.9790 C.ar  285  HIS285      0.1986
    135  NE2       11.7500  -33.0070    8.6920 N.ar  285  HIS285     -0.2212
    136  N         19.1530  -28.8420   15.2090 N.3   311  HIS311     -0.1226
    137  CA        19.5840  -29.4240   13.9550 C.3   311  HIS311      0.1752
    138  C         20.6080  -28.5460   13.2930 C.2   311  HIS311      0.2596
    139  O         20.2020  -27.6420   12.5580 O.2   311  HIS311     -0.2718
    140  CB        18.3840  -29.5490   12.9850 C.3   311  HIS311      0.0759
    141  CG        17.3020  -30.4130   13.5200 C.ar  311  HIS311      0.0818
    142  ND1       16.2470  -29.8880   14.2550 N.ar  311  HIS311     -0.2268
    143  CD2       17.1360  -31.7540   13.4270 C.ar  311  HIS311      0.1154
    144  CE1       15.4690  -30.9070   14.5930 C.ar  311  HIS311      0.1986
    145  NE2       15.9750  -32.0410   14.1090 N.ar  311  HIS311     -0.2212
    146  N         21.9090  -28.7880   13.5330 N.am  312  TYR312     -0.1976
    147  CA        22.4550  -29.8350   14.4050 C.3   312  TYR312      0.1639
    148  C         23.4690  -29.2250   15.3730 C.2   312  TYR312      0.2290
    149  O         24.1540  -28.2420   15.0980 O.2   312  TYR312     -0.2864
    150  CB        22.9930  -31.0840   13.6410 C.3   312  TYR312      0.0560
    151  CG        21.9550  -31.6070   12.6540 C.ar  312  TYR312     -0.0198
    152  CD1       21.8310  -31.0620   11.3750 C.ar  312  TYR312     -0.0009
    153  CD2       21.0630  -32.6110   13.0260 C.ar  312  TYR312     -0.0009
    154  CE1       20.8520  -31.4980   10.4800 C.ar  312  TYR312      0.0417
    155  CE2       20.0850  -33.0760   12.1450 C.ar  312  TYR312      0.0417
    156  CZ        19.9820  -32.5160   10.8720 C.ar  312  TYR312      0.1957
    157  OH        19.0210  -32.9690   10.0140 O.3   312  TYR312     -0.2866
@<TRIPOS>BOND
     1    22    21    2
     2    21    20    1
     3    20    19    1
     4    20    23    1
     5    65    66    1
     6    26    24    1
     7    23    24    1
     8    66    67    1
     9    66    69    1
    10    24    25    1
    11    67    68    2
    12    50    51    1
    13    69    70    1
    14    51    52    1
    15    51    54    1
    16    14    13    2
    17    52    53    2
    18    10     9    2
    19     4     3    2
    20    73    74    1
    21    13    12    1
    22    70    71   ar
    23    70    72   ar
    24    87    88    1
    25    47    46    2
    26    56    54    1
    27     9     8    1
    28     9    11   am
    29    54    55    1
    30     1     2    1
    31     8     7    1
    32     3     7   am
    33     3     2    1
    34    74    77    1
    35    74    75    1
    36   124   123    1
    37   124   125    2
    38    12    11    1
    39    12    15    1
    40    88    89    1
    41    88    91    1
    42    46    45    1
    43    90    89    2
    44    57    58    1
    45     2     5    1
    46    48    45    1
    47    48    49    1
    48    45    44    1
    49   123   122    1
    50    75    78   am
    51    75    76    2
    52    80    81    2
    53    80    79    1
    54    78    79    1
    55    16    15    1
    56    16    17    1
    57     6     5    1
    58    42    41    2
    59    91    92    1
    60    79    82    1
    61    44    41   am
    62    58    59    1
    63    58    61    1
    64    41    40    1
    65   122   116   am
    66    60    59    2
    67    17    18    1
    68   117   116    2
    69    61    62    1
    70    82    83    1
    71   116   115    1
    72    43    40    1
    73    40    39    1
    74    93    94    1
    75    83    84    1
    76   109   110    1
    77   109   106    1
    78    63    62    1
    79   110   111    1
    80    62    64    1
    81    30    29    2
    82   126   127    1
    83   130   127    1
    84   130   131    1
    85   115   118    1
    86   115   114    1
    87   107   106    1
    88   107   108    2
    89   118   119    1
    90    85    84    2
    91    84    86   am
    92   111   112    1
    93   106   105    1
    94   112   113    1
    95   127   128    1
    96    94    97    1
    97    94    95    1
    98    27    28    1
    99   131   133   ar
   100   131   132   ar
   101    96    95    2
   102    29    28    1
   103   133   135   ar
   104    97    98    1
   105    31    28    1
   106    31    32    1
   107   119   120   ar
   108   119   121   ar
   109    34    32   ar
   110    34    36   ar
   111   132   134   ar
   112   135   134   ar
   113    32    33   ar
   114   128   129    2
   115    36    37   ar
   116    98   100   ar
   117    98    99   ar
   118   100   102   ar
   119   157   156    1
   120    99   101   ar
   121    33    35   ar
   122    37    35   ar
   123    37    38    1
   124   154   156   ar
   125   154   152   ar
   126   156   155   ar
   127   102   103   ar
   128   152   151   ar
   129   101   103   ar
   130   103   104    1
   131   155   153   ar
   132   139   138    2
   133   151   153   ar
   134   151   150    1
   135   140   141    1
   136   140   137    1
   137   138   146   am
   138   138   137    1
   139   143   141   ar
   140   143   145   ar
   141   141   142   ar
   142   146   147    1
   143   150   147    1
   144   137   136    1
   145   145   144   ar
   146   142   144   ar
   147   147   148    1
   148   149   148    2
