@<TRIPOS>MOLECULE
tmp/2ogdB00.pdb
 183 168 0 0 0
SMALL
GASTEIGER

@<TRIPOS>ATOM
      1  N         31.8120  -46.4390   28.2280 N.3    50  ARG50      -0.1245
      2  CA        33.0460  -45.8090   27.7750 C.3    50  ARG50       0.1563
      3  C         33.8150  -45.1110   28.8980 C.2    50  ARG50       0.2260
      4  O         35.0250  -45.2820   29.0280 O.2    50  ARG50      -0.2867
      5  CB        32.7470  -44.8110   26.6500 C.3    50  ARG50       0.0307
      6  CG        32.1040  -45.4440   25.4140 C.3    50  ARG50       0.0489
      7  CD        31.7170  -44.3820   24.3960 C.3    50  ARG50       0.2205
      8  NE        30.9420  -44.9340   23.2880 N.pl3  50  ARG50      -0.0865
      9  CZ        29.6560  -45.2680   23.3560 C.cat  50  ARG50       0.5346
     10  NH1       28.9710  -45.1100   24.4830 N.pl3  50  ARG50       0.1354
     11  NH2       29.0480  -45.7620   22.2850 N.pl3  50  ARG50       0.1354
     12  N         28.1210  -36.3230   19.6150 N.3    91  TYR91      -0.1227
     13  CA        27.7000  -37.1000   18.4570 C.3    91  TYR91       0.1736
     14  C         26.2430  -37.5360   18.5130 C.2    91  TYR91       0.2595
     15  O         25.5480  -37.4910   17.5020 O.2    91  TYR91      -0.2718
     16  CB        28.6310  -38.3040   18.2610 C.3    91  TYR91       0.0548
     17  CG        29.8410  -37.9210   17.4410 C.ar   91  TYR91      -0.0200
     18  CD1       29.6900  -37.5050   16.1160 C.ar   91  TYR91      -0.0009
     19  CD2       31.1120  -37.8630   18.0090 C.ar   91  TYR91      -0.0009
     20  CE1       30.7640  -37.0280   15.3810 C.ar   91  TYR91       0.0417
     21  CE2       32.2000  -37.3860   17.2780 C.ar   91  TYR91       0.0417
     22  CZ        32.0170  -36.9660   15.9690 C.ar   91  TYR91       0.1957
     23  OH        33.0610  -36.4470   15.2450 O.3    91  TYR91      -0.2866
     24  N         25.7810  -37.9360   19.6930 N.am   92  LEU92      -0.1980
     25  CA        24.4010  -38.3660   19.8730 C.3    92  LEU92       0.1596
     26  C         23.4150  -37.2270   19.5810 C.2    92  LEU92       0.2287
     27  O         22.3720  -37.4420   18.9570 O.2    92  LEU92      -0.2864
     28  CB        24.2070  -38.8870   21.2980 C.3    92  LEU92       0.0297
     29  CG        24.1080  -40.4040   21.5070 C.3    92  LEU92       0.0022
     30  CD1       25.0840  -41.1460   20.6260 C.3    92  LEU92       0.0001
     31  CD2       24.3290  -40.7230   22.9740 C.3    92  LEU92       0.0001
     32  N         23.6770  -36.7740   15.8380 N.3    95  ASP95      -0.1225
     33  CA        23.2070  -37.9960   15.1980 C.3    95  ASP95       0.1805
     34  C         21.6790  -38.1230   15.2120 C.2    95  ASP95       0.2597
     35  O         21.0770  -38.5300   14.2210 O.2    95  ASP95      -0.2718
     36  CB        23.8190  -39.2310   15.8690 C.3    95  ASP95       0.1424
     37  CG        23.3600  -40.5220   15.2200 C.2    95  ASP95       0.3668
     38  OD1       23.8770  -40.8650   14.1440 O.co2  95  ASP95      -0.2456
     39  OD2       22.4660  -41.1820   15.7730 O.co2  95  ASP95      -0.2456
     40  N         21.0510  -37.7830   16.3300 N.am   96  ASP96      -0.1974
     41  CA        19.6000  -37.8700   16.4210 C.3    96  ASP96       0.1709
     42  C         18.9290  -36.9400   15.4260 C.2    96  ASP96       0.2293
     43  O         17.8930  -37.2720   14.8600 O.2    96  ASP96      -0.2864
     44  CB        19.1250  -37.5570   17.8390 C.3    96  ASP96       0.1436
     45  CG        19.3150  -38.7260   18.7740 C.2    96  ASP96       0.3671
     46  OD1       19.3060  -39.8670   18.2790 O.co2  96  ASP96      -0.2456
     47  OD2       19.4560  -38.5200   19.9940 O.co2  96  ASP96      -0.2456
     48  N         19.4820  -38.5040   11.9810 N.3    99  ASP99      -0.1239
     49  CA        18.7080  -39.7220   11.7500 C.3    99  ASP99       0.1674
     50  C         17.2080  -39.5660   11.9680 C.2    99  ASP99       0.2266
     51  O         16.4530  -40.5360   11.8360 O.2    99  ASP99      -0.2867
     52  CB        19.2150  -40.8540   12.6440 C.3    99  ASP99       0.1410
     53  CG        20.6760  -41.1840   12.3990 C.2    99  ASP99       0.3668
     54  OD1       21.1730  -40.8950   11.2880 O.co2  99  ASP99      -0.2456
     55  OD2       21.3190  -41.7460   13.3170 O.co2  99  ASP99      -0.2456
     56  N         15.5610  -39.1550   14.7060 N.3   101  SER101     -0.1217
     57  CA        15.0990  -39.9870   15.8050 C.3   101  SER101      0.1889
     58  C         14.1400  -39.1840   16.6710 C.2   101  SER101      0.2288
     59  O         14.1340  -37.9560   16.6280 O.2   101  SER101     -0.2866
     60  CB        16.2840  -40.4780   16.6430 C.3   101  SER101      0.2089
     61  OG        17.0450  -41.4420   15.9340 O.3   101  SER101     -0.2183
     62  N         15.5000  -40.9400   23.0220 N.3   104  ARG104     -0.1245
     63  CA        16.8540  -41.3190   23.3850 C.3   104  ARG104      0.1563
     64  C         16.9180  -41.5250   24.9030 C.2   104  ARG104      0.2260
     65  O         16.4560  -40.6750   25.6600 O.2   104  ARG104     -0.2867
     66  CB        17.7850  -40.1810   22.9850 C.3   104  ARG104      0.0307
     67  CG        19.2250  -40.3730   23.3420 C.3   104  ARG104      0.0489
     68  CD        20.0320  -40.3570   22.0700 C.3   104  ARG104      0.2205
     69  NE        20.8370  -41.5520   22.0100 N.pl3 104  ARG104     -0.0865
     70  CZ        21.3110  -42.0940   20.8990 C.cat 104  ARG104      0.5346
     71  NH1       21.0680  -41.5540   19.7120 N.pl3 104  ARG104      0.1354
     72  NH2       22.0240  -43.1980   20.9970 N.pl3 104  ARG104      0.1354
     73  N         35.4950  -40.7610   13.8500 N.3   160  THR160     -0.1218
     74  CA        34.0690  -40.9140   14.1150 C.3   160  THR160      0.1862
     75  C         33.2580  -40.0950   13.1060 C.2   160  THR160      0.2287
     76  O         32.2390  -40.5620   12.5860 O.2   160  THR160     -0.2866
     77  CB        33.7290  -40.4720   15.5620 C.3   160  THR160      0.1770
     78  OG1       34.5100  -41.2400   16.4870 O.3   160  THR160     -0.2211
     79  CG2       32.2540  -40.6880   15.8650 C.3   160  THR160      0.0375
     80  N         30.5510  -41.3200   10.3440 N.3   164  GLN164     -0.1245
     81  CA        29.2370  -40.7260   10.1710 C.3   164  GLN164      0.1566
     82  C         28.9960  -40.4310    8.6980 C.2   164  GLN164      0.2260
     83  O         27.8800  -40.5830    8.2140 O.2   164  GLN164     -0.2867
     84  CB        29.1150  -39.4350   10.9850 C.3   164  GLN164      0.0367
     85  CG        28.9480  -39.6500   12.4910 C.3   164  GLN164      0.0905
     86  CD        27.6740  -40.3920   12.8470 C.2   164  GLN164      0.2608
     87  OE1       27.6110  -41.6210   12.7730 O.2   164  GLN164     -0.2717
     88  NE2       26.6440  -39.6460   13.2240 N.am  164  GLN164     -0.0878
     89  N         28.1800  -43.6530    7.0230 N.3   167  ASP167     -0.1239
     90  CA        26.8400  -44.0450    7.4550 C.3   167  ASP167      0.1674
     91  C         25.6920  -43.2860    6.7880 C.2   167  ASP167      0.2266
     92  O         24.7260  -43.8890    6.3100 O.2   167  ASP167     -0.2867
     93  CB        26.7270  -43.8740    8.9720 C.3   167  ASP167      0.1410
     94  CG        25.3290  -44.1560    9.4930 C.2   167  ASP167      0.3668
     95  OD1       24.4420  -43.2820    9.3530 O.co2 167  ASP167     -0.2456
     96  OD2       25.1210  -45.2600   10.0370 O.co2 167  ASP167     -0.2456
     97  N         32.6160  -45.2990   12.4750 N.3   204  LYS204     -0.1231
     98  CA        31.6080  -44.5690   13.2260 C.3   204  LYS204      0.1693
     99  C         31.4350  -45.0170   14.6790 C.2   204  LYS204      0.2592
    100  O         30.9130  -44.2480   15.4900 O.2   204  LYS204     -0.2718
    101  CB        30.2440  -44.6390   12.5180 C.3   204  LYS204      0.0285
    102  CG        29.4570  -45.9160   12.7600 C.3   204  LYS204      0.0035
    103  CD        27.9980  -45.7470   12.3360 C.3   204  LYS204      0.0206
    104  CE        27.1860  -47.0270   12.4960 C.3   204  LYS204      0.1093
    105  NZ        25.7330  -46.7900   12.2260 N.3   204  LYS204     -0.1314
    106  N         31.8770  -46.2330   15.0190 N.am  205  THR205     -0.1953
    107  CA        31.6920  -46.7400   16.3910 C.3   205  THR205      0.1897
    108  C         32.8750  -47.4070   17.0970 C.2   205  THR205      0.2313
    109  O         33.1560  -47.1070   18.2570 O.2   205  THR205     -0.2863
    110  CB        30.5060  -47.7470   16.4520 C.3   205  THR205      0.1794
    111  OG1       29.2910  -47.0690   16.1410 O.3   205  THR205     -0.2208
    112  CG2       30.3850  -48.3780   17.8350 C.3   205  THR205      0.0378
    113  N         35.8310  -44.8540   18.8650 N.3   208  TYR208     -0.1241
    114  CA        35.5130  -44.0690   20.0490 C.3   208  TYR208      0.1605
    115  C         34.8150  -44.8440   21.1700 C.2   208  TYR208      0.2264
    116  O         34.8030  -44.4060   22.3240 O.2   208  TYR208     -0.2867
    117  CB        34.6840  -42.8410   19.6470 C.3   208  TYR208      0.0534
    118  CG        33.1830  -43.0240   19.6860 C.ar  208  TYR208     -0.0201
    119  CD1       32.4630  -42.7690   20.8550 C.ar  208  TYR208     -0.0009
    120  CD2       32.4720  -43.4030   18.5440 C.ar  208  TYR208     -0.0009
    121  CE1       31.0690  -42.8790   20.8840 C.ar  208  TYR208      0.0417
    122  CE2       31.0790  -43.5170   18.5640 C.ar  208  TYR208      0.0417
    123  CZ        30.3860  -43.2520   19.7330 C.ar  208  TYR208      0.1957
    124  OH        29.0130  -43.3430   19.7630 O.3   208  TYR208     -0.2866
    125  N         28.0530  -52.6890   17.3180 N.3   244  GLN244     -0.1245
    126  CA        27.1860  -51.9870   16.3760 C.3   244  GLN244      0.1566
    127  C         26.1610  -52.9340   15.7510 C.2   244  GLN244      0.2260
    128  O         25.0490  -52.5220   15.4260 O.2   244  GLN244     -0.2867
    129  CB        28.0180  -51.3160   15.2860 C.3   244  GLN244      0.0367
    130  CG        27.2340  -50.3360   14.4290 C.3   244  GLN244      0.0905
    131  CD        26.4460  -49.3320   15.2600 C.2   244  GLN244      0.2608
    132  OE1       27.0090  -48.6180   16.0960 O.2   244  GLN244     -0.2717
    133  NE2       25.1380  -49.2750   15.0330 N.am  244  GLN244     -0.0878
    134  N         23.5250  -53.1100   18.1450 N.3   247  ASP247     -0.1225
    135  CA        22.7750  -51.8650   18.0510 C.3   247  ASP247      0.1805
    136  C         21.7800  -51.9170   16.8900 C.2   247  ASP247      0.2597
    137  O         20.6390  -51.4820   17.0250 O.2   247  ASP247     -0.2718
    138  CB        23.7310  -50.6870   17.8430 C.3   247  ASP247      0.1424
    139  CG        23.0180  -49.3520   17.8810 C.2   247  ASP247      0.3668
    140  OD1       22.4470  -49.0260   18.9370 O.co2 247  ASP247     -0.2456
    141  OD2       23.0190  -48.6330   16.8600 O.co2 247  ASP247     -0.2456
    142  N         22.2210  -52.4460   15.7510 N.am  248  ASP248     -0.1974
    143  CA        21.3570  -52.5500   14.5780 C.3   248  ASP248      0.1709
    144  C         20.2520  -53.5740   14.8170 C.2   248  ASP248      0.2293
    145  O         19.0860  -53.3200   14.5160 O.2   248  ASP248     -0.2864
    146  CB        22.1610  -52.9710   13.3470 C.3   248  ASP248      0.1436
    147  CG        23.1380  -51.9100   12.8840 C.2   248  ASP248      0.3671
    148  OD1       23.1130  -50.7740   13.4070 O.co2 248  ASP248     -0.2456
    149  OD2       23.9310  -52.2230   11.9760 O.co2 248  ASP248     -0.2456
    150  N         17.7210  -52.2050   17.1640 N.3   251  ASP251     -0.1239
    151  CA        16.9640  -51.1280   16.5430 C.3   251  ASP251      0.1674
    152  C         15.6840  -51.7130   15.9660 C.2   251  ASP251      0.2266
    153  O         14.6030  -51.1260   16.0680 O.2   251  ASP251     -0.2867
    154  CB        17.7750  -50.4980   15.4090 C.3   251  ASP251      0.1410
    155  CG        17.2470  -49.1380   15.0000 C.2   251  ASP251      0.3668
    156  OD1       17.4680  -48.1670   15.7620 O.co2 251  ASP251     -0.2456
    157  OD2       16.6110  -49.0330   13.9260 O.co2 251  ASP251     -0.2456
    158  N         15.0070  -46.1060   23.0470 N.3   261  LYS261     -0.1245
    159  CA        14.9970  -45.3130   21.8340 C.3   261  LYS261      0.1561
    160  C         14.2050  -46.0560   20.7710 C.2   261  LYS261      0.2260
    161  O         14.1790  -47.2890   20.7530 O.2   261  LYS261     -0.2867
    162  CB        16.4370  -45.0600   21.3650 C.3   261  LYS261      0.0271
    163  CG        17.1770  -46.3080   20.9250 C.3   261  LYS261      0.0035
    164  CD        18.6570  -46.0570   20.6700 C.3   261  LYS261      0.0206
    165  CE        19.3030  -47.3150   20.0990 C.3   261  LYS261      0.1093
    166  NZ        20.7530  -47.1710   19.8480 N.3   261  LYS261     -0.1314
    167  N         16.2560  -47.1230   11.6250 N.3   265  ASP265     -0.1239
    168  CA        17.0730  -47.7550   10.5910 C.3   265  ASP265      0.1674
    169  C         16.3520  -48.1250    9.2890 C.2   265  ASP265      0.2266
    170  O         16.8440  -47.8170    8.2020 O.2   265  ASP265     -0.2867
    171  CB        17.7750  -49.0050   11.1510 C.3   265  ASP265      0.1410
    172  CG        18.9890  -48.6670   12.0220 C.2   265  ASP265      0.3668
    173  OD1       19.4230  -47.4910   12.0310 O.co2 265  ASP265     -0.2456
    174  OD2       19.5190  -49.5850   12.6840 O.co2 265  ASP265     -0.2456
    175  N         18.9770  -47.3420    6.2000 N.3   270  LYS270     -0.1245
    176  CA        20.3600  -47.4990    6.6480 C.3   270  LYS270      0.1561
    177  C         20.9770  -48.8220    6.2210 C.2   270  LYS270      0.2260
    178  O         20.2790  -49.8260    6.0860 O.2   270  LYS270     -0.2867
    179  CB        20.4330  -47.3980    8.1760 C.3   270  LYS270      0.0271
    180  CG        19.9500  -46.0780    8.7460 C.3   270  LYS270      0.0035
    181  CD        20.9440  -44.9660    8.5080 C.3   270  LYS270      0.0206
    182  CE        20.4750  -43.6850    9.1950 C.3   270  LYS270      0.1093
    183  NZ        21.5710  -42.7020    9.2610 N.3   270  LYS270     -0.1314
@<TRIPOS>BOND
     1   178   177    2
     2   175   176    1
     3   177   176    1
     4    92    91    2
     5   176   179    1
     6    91    90    1
     7    89    90    1
     8    90    93    1
     9   179   180    1
    10   170   169    2
    11    83    82    2
    12   181   180    1
    13   181   182    1
    14    82    81    1
    15    93    94    1
    16   182   183    1
    17   169   168    1
    18    95    94   ar
    19    94    96   ar
    20    81    80    1
    21    81    84    1
    22   168   171    1
    23   168   167    1
    24    84    85    1
    25   171   172    1
    26    54    53   ar
    27    49    50    1
    28    49    48    1
    29    49    52    1
    30    51    50    2
    31   149   147   ar
    32   172   173   ar
    33   172   174   ar
    34   105   104    1
    35   103   104    1
    36   103   102    1
    37    53    52    1
    38    53    55   ar
    39    97    98    1
    40    85    86    1
    41   101   102    1
    42   101    98    1
    43    76    75    2
    44    87    86    2
    45    86    88   am
    46   147   146    1
    47   147   148   ar
    48    75    74    1
    49    98    99    1
    50   146   143    1
    51    73    74    1
    52   157   155   ar
    53    74    77    1
    54    38    37   ar
    55    35    34    2
    56   130   131    1
    57   130   129    1
    58   145   144    2
    59   143   144    1
    60   143   142    1
    61    99   106   am
    62    99   100    2
    63    56    57    1
    64    43    42    2
    65   155   154    1
    66   155   156   ar
    67   106   107    1
    68   133   131   am
    69    33    34    1
    70    33    32    1
    71    33    36    1
    72    34    40   am
    73    37    39   ar
    74    37    36    1
    75    23    22    1
    76   131   132    2
    77   129   126    1
    78    20    22   ar
    79    20    18   ar
    80   154   151    1
    81   128   127    2
    82    42    41    1
    83    77    79    1
    84    77    78    1
    85   127   126    1
    86   142   136   am
    87    57    60    1
    88    57    58    1
    89    61    60    1
    90   152   153    2
    91   152   151    1
    92    22    21   ar
    93    18    17   ar
    94   111   110    1
    95    40    41    1
    96   126   125    1
    97   107   110    1
    98   107   108    1
    99    41    44    1
   100   110   112    1
   101   151   150    1
   102    59    58    2
   103   141   139   ar
   104   136   137    2
   105   136   135    1
   106   108   109    2
   107    21    19   ar
   108    17    19   ar
   109    17    16    1
   110    15    14    2
   111    44    45    1
   112   138   139    1
   113   138   135    1
   114   139   140   ar
   115   135   134    1
   116    16    13    1
   117    46    45   ar
   118    13    14    1
   119    13    12    1
   120    14    24   am
   121   120   122   ar
   122   120   118   ar
   123   122   123   ar
   124    45    47   ar
   125   113   114    1
   126    27    26    2
   127    26    25    1
   128   117   118    1
   129   117   114    1
   130   118   119   ar
   131    24    25    1
   132    71    70    1
   133   123   124    1
   134   123   121   ar
   135   166   165    1
   136    25    28    1
   137   114   115    1
   138   165   164    1
   139    30    29    1
   140   164   163    1
   141   161   160    2
   142   160   159    1
   143   119   121   ar
   144    70    72    1
   145    70    69    2
   146   163   162    1
   147   115   116    2
   148    28    29    1
   149   162   159    1
   150    29    31    1
   151   159   158    1
   152    69    68    1
   153    68    67    1
   154    11     9    1
   155    66    67    1
   156    66    63    1
   157    62    63    1
   158     8     9    2
   159     8     7    1
   160     9    10    1
   161    63    64    1
   162     7     6    1
   163    64    65    2
   164     6     5    1
   165     5     2    1
   166     2     1    1
   167     2     3    1
   168     3     4    2
