@<TRIPOS>MOLECULE
tmp/2ogiB00.pdb
 188 182 0 0 0
SMALL
GASTEIGER

@<TRIPOS>ATOM
      1  N         -4.4750   21.8790   77.4010 N.3    26  HIS26      -0.1241
      2  CA        -4.1860   22.4340   76.0830 C.3    26  HIS26       0.1621
      3  C         -4.6960   23.8620   76.0270 C.2    26  HIS26       0.2264
      4  O         -3.9750   24.7710   75.6100 O.2    26  HIS26      -0.2867
      5  CB        -4.8250   21.5660   74.9690 C.3    26  HIS26       0.0745
      6  CG        -4.9600   22.2710   73.6500 C.ar   26  HIS26       0.0817
      7  ND1       -3.8620   22.6230   72.8930 N.ar   26  HIS26      -0.2268
      8  CD2       -6.0470   22.7060   72.9690 C.ar   26  HIS26       0.1154
      9  CE1       -4.2740   23.2430   71.8040 C.ar   26  HIS26       0.1986
     10  NE2       -5.5910   23.3150   71.8300 N.ar   26  HIS26      -0.2212
     11  N        -11.6790   26.2020   72.0520 N.3    56  ASP56      -0.1239
     12  CA       -12.1000   24.7920   71.9870 C.3    56  ASP56       0.1674
     13  C        -13.2190   24.4760   72.9600 C.2    56  ASP56       0.2266
     14  O        -13.4410   23.3160   73.2930 O.2    56  ASP56      -0.2867
     15  CB       -10.9110   23.8620   72.2350 C.3    56  ASP56       0.1410
     16  CG       -10.1070   23.5890   70.9960 C.2    56  ASP56       0.3668
     17  OD1      -10.6570   23.6600   69.8700 O.co2  56  ASP56      -0.2456
     18  OD2       -8.9160   23.2840   71.1680 O.co2  56  ASP56      -0.2456
     19  N        -15.1130   21.5160   71.6950 N.3    59  LYS59      -0.1245
     20  CA       -14.3420   20.3800   71.1430 C.3    59  LYS59       0.1561
     21  C        -14.9690   19.0020   71.3810 C.2    59  LYS59       0.2260
     22  O        -14.9220   18.1280   70.5150 O.2    59  LYS59      -0.2867
     23  CB       -12.9380   20.4060   71.7780 C.3    59  LYS59       0.0271
     24  CG       -11.9190   19.3620   71.2800 C.3    59  LYS59       0.0035
     25  CD       -11.5750   19.5850   69.8450 C.3    59  LYS59       0.0206
     26  CE       -10.5300   18.6000   69.3470 C.3    59  LYS59       0.1093
     27  NZ        -9.9600   18.8940   68.0150 N.3    59  LYS59      -0.1314
     28  N        -19.5240   17.2640   57.1550 N.3    82  TRP82      -0.1241
     29  CA       -18.2100   17.2330   57.7510 C.3    82  TRP82       0.1605
     30  C        -18.3030   16.6470   59.1630 C.2    82  TRP82       0.2264
     31  O        -19.0780   15.7470   59.4210 O.2    82  TRP82      -0.2867
     32  CB       -17.5770   18.6330   57.7050 C.3    82  TRP82       0.0550
     33  CG       -17.3210   19.0630   56.2880 C.ar   82  TRP82       0.0003
     34  CD1      -18.1910   19.6180   55.4260 C.ar   82  TRP82       0.0946
     35  CD2      -16.0970   18.9080   55.5860 C.ar   82  TRP82       0.0152
     36  NE1      -17.5860   19.8270   54.2080 N.ar   82  TRP82      -0.2442
     37  CE2      -16.2870   19.4170   54.2950 C.ar   82  TRP82       0.0810
     38  CE3      -14.8300   18.4260   55.9450 C.ar   82  TRP82       0.0012
     39  CZ2      -15.2660   19.4360   53.3410 C.ar   82  TRP82       0.0191
     40  CZ3      -13.8160   18.4700   55.0020 C.ar   82  TRP82       0.0001
     41  CH2      -14.0410   18.9410   53.7180 C.ar   82  TRP82       0.0015
     42  N        -13.9170   18.1820   63.6050 N.3    85  ASN85      -0.1225
     43  CA       -12.7840   19.0540   63.2850 C.3    85  ASN85       0.1785
     44  C        -13.2660   20.4040   62.7590 C.2    85  ASN85       0.2597
     45  O        -12.8210   21.4390   63.1980 O.2    85  ASN85      -0.2718
     46  CB       -11.8600   18.4020   62.2370 C.3    85  ASN85       0.1169
     47  CG       -11.0410   17.2400   62.7950 C.2    85  ASN85       0.2627
     48  OD1      -10.9940   17.0050   64.0030 O.2    85  ASN85      -0.2716
     49  ND2      -10.3750   16.5100   61.8940 N.am   85  ASN85      -0.0877
     50  N        -14.1990   20.3550   61.8290 N.am   86  ILE86      -0.1980
     51  CA       -14.7200   21.5490   61.2100 C.3    86  ILE86       0.1595
     52  C        -15.7610   22.1780   62.1340 C.2    86  ILE86       0.2287
     53  O        -15.7740   23.3750   62.3080 O.2    86  ILE86      -0.2864
     54  CB       -15.3790   21.2320   59.8290 C.3    86  ILE86       0.0276
     55  CG1      -14.3270   20.6440   58.8620 C.3    86  ILE86       0.0022
     56  CG2      -16.0340   22.4510   59.2580 C.3    86  ILE86       0.0022
     57  CD1      -13.0870   21.3880   58.7830 C.3    86  ILE86       0.0001
     58  N        -16.3450   22.2790   65.4460 N.3    88  HIS88      -0.1241
     59  CA       -16.1980   22.7110   66.8030 C.3    88  HIS88       0.1621
     60  C        -15.8710   24.1810   66.9160 C.2    88  HIS88       0.2264
     61  O        -16.2890   24.8410   67.8890 O.2    88  HIS88      -0.2867
     62  CB       -15.2770   21.7740   67.5890 C.3    88  HIS88       0.0745
     63  CG       -13.8140   22.0050   67.3590 C.ar   88  HIS88       0.0817
     64  ND1      -13.1350   21.4360   66.3030 N.ar   88  HIS88      -0.2268
     65  CD2      -12.9010   22.6630   68.0980 C.ar   88  HIS88       0.1154
     66  CE1      -11.8650   21.8110   66.3620 C.ar   88  HIS88       0.1986
     67  NE2      -11.6980   22.5550   67.4450 N.ar   88  HIS88      -0.2212
     68  N        -10.6460   29.2180   63.8900 N.3   114  HIS114     -0.1226
     69  CA        -9.3600   28.8360   64.4430 C.3   114  HIS114      0.1752
     70  C         -8.7650   27.5700   63.8400 C.2   114  HIS114      0.2597
     71  O         -7.5500   27.4410   63.8250 O.2   114  HIS114     -0.2718
     72  CB        -9.4390   28.7230   65.9710 C.3   114  HIS114      0.0759
     73  CG       -10.0330   27.4330   66.4640 C.ar  114  HIS114      0.0818
     74  ND1      -11.3760   27.2650   66.7260 N.ar  114  HIS114     -0.2268
     75  CD2       -9.4320   26.2670   66.7960 C.ar  114  HIS114      0.1154
     76  CE1      -11.5750   26.0270   67.1630 C.ar  114  HIS114      0.1986
     77  NE2      -10.4070   25.4100   67.2250 N.ar  114  HIS114     -0.2212
     78  N         -9.6030   26.6750   63.3130 N.am  115  THR115     -0.1939
     79  CA        -9.1370   25.4240   62.7320 C.3   115  THR115      0.2028
     80  C         -8.6840   25.5910   61.2750 C.2   115  THR115      0.2642
     81  O         -7.6400   25.0700   60.8960 O.2   115  THR115     -0.2714
     82  CB       -10.2080   24.2920   62.8310 C.3   115  THR115      0.1808
     83  OG1      -10.7080   24.2170   64.1780 O.3   115  THR115     -0.2208
     84  CG2       -9.6150   22.9080   62.4100 C.3   115  THR115      0.0379
     85  N         -9.4500   26.3240   60.4970 N.am  116  VAL116     -0.1977
     86  CA        -9.3160   26.3830   59.0520 C.3   116  VAL116      0.1596
     87  C         -8.6940   27.6760   58.5320 C.2   116  VAL116      0.2287
     88  O         -8.2680   27.7200   57.4120 O.2   116  VAL116     -0.2864
     89  CB       -10.7170   26.2000   58.3340 C.3   116  VAL116      0.0276
     90  CG1      -11.2420   24.7710   58.4760 C.3   116  VAL116      0.0022
     91  CG2      -11.7820   27.1840   58.8170 C.3   116  VAL116      0.0022
     92  N         -2.6590   28.0390   69.0690 N.3   131  ASP131     -0.1239
     93  CA        -3.2060   26.6820   69.0650 C.3   131  ASP131      0.1674
     94  C         -2.1720   25.6140   68.6820 C.2   131  ASP131      0.2266
     95  O         -2.1650   24.5250   69.2580 O.2   131  ASP131     -0.2867
     96  CB        -4.3880   26.6140   68.1140 C.3   131  ASP131      0.1410
     97  CG        -5.1890   25.3030   68.2660 C.2   131  ASP131      0.3668
     98  OD1       -5.2110   24.7830   69.3980 O.co2 131  ASP131     -0.2456
     99  OD2       -5.7780   24.8580   67.2760 O.co2 131  ASP131     -0.2456
    100  N          2.1150   21.0290   73.2770 N.3   137  ARG137     -0.1245
    101  CA         2.2490   20.4120   71.9710 C.3   137  ARG137      0.1563
    102  C          3.6440   19.8370   71.8340 C.2   137  ARG137      0.2260
    103  O          4.6400   20.4680   72.2190 O.2   137  ARG137     -0.2867
    104  CB         2.0000   21.4000   70.8280 C.3   137  ARG137      0.0307
    105  CG         0.6230   22.0410   70.7960 C.3   137  ARG137      0.0489
    106  CD        -0.4290   21.1230   70.3400 C.3   137  ARG137      0.2205
    107  NE        -1.5860   21.8260   69.7540 N.pl3 137  ARG137     -0.0865
    108  CZ        -2.7940   21.2900   69.6720 C.cat 137  ARG137      0.5346
    109  NH1       -3.0140   20.0580   70.1170 N.pl3 137  ARG137      0.1354
    110  NH2       -3.7750   21.9690   69.1070 N.pl3 137  ARG137      0.1354
    111  N          2.1310   26.8150   59.4000 N.3   160  GLU160     -0.1245
    112  CA         1.1550   25.9660   60.0180 C.3   160  GLU160      0.1567
    113  C          0.2080   25.4320   58.9450 C.2   160  GLU160      0.2260
    114  O         -0.0740   24.2500   58.8900 O.2   160  GLU160     -0.2867
    115  CB         0.4390   26.7130   61.0800 C.3   160  GLU160      0.0388
    116  CG        -0.7020   25.9550   61.6020 C.3   160  GLU160      0.1160
    117  CD        -1.4780   26.6340   62.7220 C.2   160  GLU160      0.3649
    118  OE1       -1.0070   27.6080   63.2680 O.co2 160  GLU160     -0.2457
    119  OE2       -2.5840   26.1390   63.0280 O.co2 160  GLU160     -0.2457
    120  N         -0.4670   21.5370   57.7570 N.3   164  THR164     -0.1218
    121  CA        -1.7650   20.8910   57.9090 C.3   164  THR164      0.1862
    122  C         -2.2480   20.3260   56.5740 C.2   164  THR164      0.2287
    123  O         -2.7700   19.2260   56.5320 O.2   164  THR164     -0.2866
    124  CB        -2.7410   21.9320   58.5120 C.3   164  THR164      0.1770
    125  OG1       -2.2110   22.3160   59.8030 O.3   164  THR164     -0.2211
    126  CG2       -4.1700   21.3970   58.5790 C.3   164  THR164      0.0375
    127  N         -0.0810   17.2070   55.9290 N.3   167  PHE167     -0.1227
    128  CA        -0.5430   16.1580   56.8850 C.3   167  PHE167      0.1736
    129  C         -1.8460   15.5030   56.4140 C.2   167  PHE167      0.2595
    130  O         -1.9270   14.2790   56.3280 O.2   167  PHE167     -0.2718
    131  CB        -0.6630   16.8110   58.2900 C.3   167  PHE167      0.0547
    132  CG        -1.1020   15.8920   59.3830 C.ar  167  PHE167     -0.0202
    133  CD1       -0.2440   14.9960   59.9210 C.ar  167  PHE167     -0.0042
    134  CD2       -2.4080   15.9380   59.8680 C.ar  167  PHE167     -0.0042
    135  CE1       -0.6800   14.1150   60.9520 C.ar  167  PHE167     -0.0003
    136  CE2       -2.8280   15.1160   60.8650 C.ar  167  PHE167     -0.0003
    137  CZ        -1.9650   14.1870   61.4110 C.ar  167  PHE167     -0.0000
    138  N         -2.8480   16.2930   56.0800 N.am  168  LEU168     -0.1980
    139  CA        -4.1160   15.7380   55.6690 C.3   168  LEU168      0.1596
    140  C         -3.9770   14.9660   54.3570 C.2   168  LEU168      0.2287
    141  O         -4.4850   13.8450   54.2340 O.2   168  LEU168     -0.2864
    142  CB        -5.1910   16.8110   55.5770 C.3   168  LEU168      0.0297
    143  CG        -5.6030   17.4680   56.9130 C.3   168  LEU168      0.0022
    144  CD1       -6.4210   18.6520   56.6520 C.3   168  LEU168      0.0001
    145  CD2       -6.3700   16.4960   57.7720 C.3   168  LEU168      0.0001
    146  N         -7.1080   12.3830   53.9670 N.3   173  GLN173     -0.1231
    147  CA        -8.2660   12.9690   54.6220 C.3   173  GLN173      0.1683
    148  C         -8.7890   14.2010   53.9050 C.2   173  GLN173      0.2434
    149  O         -8.0260   14.9640   53.3070 O.2   173  GLN173     -0.2733
    150  CB        -7.9180   13.3760   56.0660 C.3   173  GLN173      0.0380
    151  CG        -7.5110   12.2260   56.9280 C.3   173  GLN173      0.0905
    152  CD        -8.4740   11.0410   56.8990 C.2   173  GLN173      0.2608
    153  OE1       -8.1190    9.9600   56.4200 O.2   173  GLN173     -0.2717
    154  NE2       -9.6950   11.2370   57.4040 N.am  173  GLN173     -0.0878
    155  N        -10.0930   14.4490   54.0040 N.am  174  PRO174     -0.2718
    156  CA       -10.6770   15.6070   53.3670 C.3   174  PRO174      0.1535
    157  C        -10.0810   16.9110   53.8350 C.2   174  PRO174      0.2598
    158  O         -9.6990   17.0460   55.0130 O.2   174  PRO174     -0.2715
    159  CB       -12.1510   15.5460   53.7930 C.3   174  PRO174      0.0310
    160  CG       -12.3490   14.2800   54.4090 C.3   174  PRO174      0.0237
    161  CD       -11.0780   13.6500   54.7440 C.3   174  PRO174      0.0939
    162  N        -10.0100   17.8600   52.9210 N.am  175  ILE175     -0.1964
    163  CA        -9.4840   19.1620   53.1940 C.3   175  ILE175      0.1727
    164  C        -10.5730   20.1460   52.9150 C.2   175  ILE175      0.2616
    165  O        -11.0710   20.2980   51.8090 O.2   175  ILE175     -0.2715
    166  CB        -8.2390   19.4410   52.3520 C.3   175  ILE175      0.0290
    167  CG1       -7.1480   18.4500   52.7030 C.3   175  ILE175      0.0022
    168  CG2       -7.7410   20.8480   52.5700 C.3   175  ILE175      0.0023
    169  CD1       -5.9670   18.4890   51.7630 C.3   175  ILE175      0.0001
    170  N        -10.9140   20.8650   53.9690 N.am  176  TYR176     -0.1974
    171  CA       -11.9470   21.8460   53.9160 C.3   176  TYR176      0.1639
    172  C        -11.5010   22.9580   53.0030 C.2   176  TYR176      0.2290
    173  O        -10.3770   23.4110   53.0650 O.2   176  TYR176     -0.2864
    174  CB       -12.2360   22.3200   55.3210 C.3   176  TYR176      0.0560
    175  CG       -13.5150   23.0500   55.4430 C.ar  176  TYR176     -0.0198
    176  CD1      -14.6970   22.3830   55.2980 C.ar  176  TYR176     -0.0009
    177  CD2      -13.5400   24.3910   55.7410 C.ar  176  TYR176     -0.0009
    178  CE1      -15.9050   23.0330   55.4370 C.ar  176  TYR176      0.0417
    179  CE2      -14.7170   25.0590   55.8740 C.ar  176  TYR176      0.0417
    180  CZ       -15.8950   24.3710   55.7250 C.ar  176  TYR176      0.1957
    181  OH       -17.0620   25.0520   55.8490 O.3   176  TYR176     -0.2866
    182  N         -9.5600   25.8990   54.1290 N.3   179  THR179     -0.1218
    183  CA        -8.1670   25.6080   54.4780 C.3   179  THR179      0.1862
    184  C         -7.2600   25.9290   53.2920 C.2   179  THR179      0.2287
    185  O         -6.1680   26.4060   53.4630 O.2   179  THR179     -0.2866
    186  CB        -8.0180   24.1430   54.9700 C.3   179  THR179      0.1770
    187  OG1       -8.8400   23.9840   56.1450 O.3   179  THR179     -0.2211
    188  CG2       -6.5960   23.8740   55.3030 C.3   179  THR179      0.0375
@<TRIPOS>BOND
     1   169   167    1
     2   165   164    2
     3   166   168    1
     4   166   167    1
     5   166   163    1
     6   164   163    1
     7   164   170   am
     8   162   163    1
     9   162   157   am
    10   172   173    2
    11   172   171    1
    12   184   185    2
    13   184   183    1
    14   149   148    2
    15    39    41   ar
    16    39    37   ar
    17   156   159    1
    18   156   157    1
    19   156   155    1
    20    41    40   ar
    21   159   160    1
    22   157   158    2
    23   148   155   am
    24   148   147    1
    25   171   170    1
    26   171   174    1
    27   146   147    1
    28   155   161    1
    29   182   183    1
    30    36    37   ar
    31    36    34   ar
    32   141   140    2
    33    37    35   ar
    34   140   139    1
    35   160   161    1
    36   183   186    1
    37   147   150    1
    38   186   188    1
    39   186   187    1
    40    40    38   ar
    41   176   178   ar
    42   176   175   ar
    43   174   175    1
    44    34    33   ar
    45   178   180   ar
    46   175   177   ar
    47   142   139    1
    48   142   143    1
    49    35    38   ar
    50    35    33   ar
    51   139   138    1
    52   180   181    1
    53   180   179   ar
    54   177   179   ar
    55   127   128    1
    56   150   151    1
    57   138   129   am
    58    33    32    1
    59   130   129    2
    60   129   128    1
    61   153   152    2
    62   123   122    2
    63   122   121    1
    64   144   143    1
    65   128   131    1
    66   152   151    1
    67   152   154   am
    68   143   145    1
    69    28    29    1
    70    88    87    2
    71    32    29    1
    72    29    30    1
    73   120   121    1
    74   121   124    1
    75   131   132    1
    76    89    90    1
    77    89    91    1
    78    89    86    1
    79   124   126    1
    80   124   125    1
    81    87    86    1
    82    57    55    1
    83    55    54    1
    84   114   113    2
    85   113   112    1
    86    86    85    1
    87    30    31    2
    88    56    54    1
    89   132   134   ar
    90   132   133   ar
    91   111   112    1
    92    54    51    1
    93   134   136   ar
    94   133   135   ar
    95   112   115    1
    96    85    80   am
    97   136   137   ar
    98    81    80    2
    99   135   137   ar
   100   115   116    1
   101    51    50    1
   102    51    52    1
   103    80    79    1
   104   116   117    1
   105    50    44   am
   106    49    47   am
   107    52    53    2
   108    46    47    1
   109    46    43    1
   110    84    82    1
   111   117   119   ar
   112   117   118   ar
   113    79    82    1
   114    79    78    1
   115    44    45    2
   116    44    43    1
   117    47    48    2
   118    82    83    1
   119    43    42    1
   120    78    70   am
   121    71    70    2
   122    70    69    1
   123    68    69    1
   124    69    72    1
   125    58    59    1
   126    72    73    1
   127    64    66   ar
   128    64    63   ar
   129    66    67   ar
   130    73    74   ar
   131    73    75   ar
   132    74    76   ar
   133    75    77   ar
   134    59    60    1
   135    59    62    1
   136    60    61    2
   137    76    77   ar
   138    99    97   ar
   139    63    62    1
   140    63    65   ar
   141    67    65   ar
   142    27    26    1
   143    96    97    1
   144    96    93    1
   145    97    98   ar
   146    94    93    1
   147    94    95    2
   148    93    92    1
   149   110   108    1
   150    26    25    1
   151   108   107    2
   152   108   109    1
   153   107   106    1
   154    25    24    1
   155    17    16   ar
   156   106   105    1
   157    22    21    2
   158   105   104    1
   159   104   101    1
   160    16    18   ar
   161    16    15    1
   162    20    21    1
   163    20    19    1
   164    20    23    1
   165    24    23    1
   166     9    10   ar
   167     9     7   ar
   168    10     8   ar
   169   102   101    1
   170   102   103    2
   171   101   100    1
   172    12    11    1
   173    12    15    1
   174    12    13    1
   175     7     6   ar
   176    13    14    2
   177     8     6   ar
   178     6     5    1
   179     5     2    1
   180     4     3    2
   181     3     2    1
   182     2     1    1
