@<TRIPOS>MOLECULE
tmp/2ogzA00.pdb
 181 179 0 0 0
SMALL
GASTEIGER

@<TRIPOS>ATOM
      1  N         34.7610   65.9830   92.3190 N.3    87  ARG87      -0.1231
      2  CA        34.1270   65.3770   93.4920 C.3    87  ARG87       0.1694
      3  C         34.1950   66.2310   94.7440 C.2    87  ARG87       0.2592
      4  O         33.2720   66.2180   95.5520 O.2    87  ARG87      -0.2718
      5  CB        34.7420   64.0160   93.8320 C.3    87  ARG87       0.0321
      6  CG        34.0420   63.3120   95.0200 C.3    87  ARG87       0.0489
      7  CD        34.7950   62.0450   95.4550 C.3    87  ARG87       0.2205
      8  NE        35.0430   61.1460   94.3250 N.pl3  87  ARG87      -0.0865
      9  CZ        34.2980   60.0870   94.0130 C.cat  87  ARG87       0.5346
     10  NH1       33.2420   59.7720   94.7510 N.pl3  87  ARG87       0.1354
     11  NH2       34.6060   59.3430   92.9550 N.pl3  87  ARG87       0.1354
     12  N         35.2910   66.9620   94.9080 N.am   88  HIS88      -0.1976
     13  CA        35.4630   67.7890   96.0960 C.3    88  HIS88       0.1656
     14  C         35.6130   69.2560   95.7410 C.2    88  HIS88       0.2291
     15  O         35.1680   70.1230   96.4810 O.2    88  HIS88      -0.2864
     16  CB        36.7020   67.3400   96.8850 C.3    88  HIS88       0.0771
     17  CG        36.7510   65.8680   97.1660 C.ar   88  HIS88       0.0820
     18  ND1       36.0070   65.2760   98.1620 N.ar   88  HIS88      -0.2267
     19  CD2       37.4800   64.8760   96.6010 C.ar   88  HIS88       0.1154
     20  CE1       36.2770   63.9830   98.2030 C.ar   88  HIS88       0.1986
     21  NE2       37.1680   63.7150   97.2640 N.ar   88  HIS88      -0.2212
     22  N         41.0130   63.5450   93.2660 N.3   167  GLU167     -0.1231
     23  CA        40.2760   62.2980   93.3440 C.3   167  GLU167      0.1699
     24  C         40.9740   61.1490   94.0420 C.2   167  GLU167      0.2592
     25  O         40.4190   60.5610   94.9600 O.2   167  GLU167     -0.2718
     26  CB        39.8960   61.8310   91.9340 C.3   167  GLU167      0.0402
     27  CG        39.1890   60.4740   91.8720 C.3   167  GLU167      0.1161
     28  CD        37.7850   60.5120   92.4740 C.2   167  GLU167      0.3649
     29  OE1       37.2810   61.6260   92.7270 O.co2 167  GLU167     -0.2457
     30  OE2       37.1800   59.4340   92.6880 O.co2 167  GLU167     -0.2457
     31  N         42.2010   60.8560   93.6210 N.am  168  GLU168     -0.1979
     32  CA        42.9170   59.6920   94.1300 C.3   168  GLU168      0.1602
     33  C         43.8900   59.7390   95.2990 C.2   168  GLU168      0.2287
     34  O         44.1480   58.6980   95.9020 O.2   168  GLU168     -0.2864
     35  CB        43.5980   59.0020   92.9400 C.3   168  GLU168      0.0415
     36  CG        42.7010   58.8850   91.7110 C.3   168  GLU168      0.1163
     37  CD        41.5210   57.9620   91.9360 C.2   168  GLU168      0.3649
     38  OE1       41.2200   57.6420   93.1000 O.co2 168  GLU168     -0.2457
     39  OE2       40.8800   57.5640   90.9460 O.co2 168  GLU168     -0.2457
     40  N         42.0590   63.3290   98.2150 N.3   171  SER171     -0.1217
     41  CA        40.6330   63.1930   98.4180 C.3   171  SER171      0.1889
     42  C         40.1290   64.5600   98.8750 C.2   171  SER171      0.2288
     43  O         39.2530   64.6690   99.7280 O.2   171  SER171     -0.2866
     44  CB        40.3600   62.1320   99.4790 C.3   171  SER171      0.2089
     45  OG        38.9730   61.8830   99.5720 O.3   171  SER171     -0.2183
     46  N         44.3420   52.6100  100.6990 N.3   319  PHE319     -0.1241
     47  CA        44.2440   53.4220   99.4870 C.3   319  PHE319      0.1605
     48  C         45.4690   54.3050   99.3760 C.2   319  PHE319      0.2264
     49  O         45.7520   54.8680   98.3200 O.2   319  PHE319     -0.2867
     50  CB        42.9880   54.2990   99.5280 C.3   319  PHE319      0.0534
     51  CG        41.7190   53.5350   99.3320 C.ar  319  PHE319     -0.0203
     52  CD1       41.2660   53.2500   98.0530 C.ar  319  PHE319     -0.0042
     53  CD2       41.0030   53.0570  100.4220 C.ar  319  PHE319     -0.0042
     54  CE1       40.1190   52.4990   97.8620 C.ar  319  PHE319     -0.0003
     55  CE2       39.8520   52.3020  100.2390 C.ar  319  PHE319     -0.0003
     56  CZ        39.4100   52.0220   98.9580 C.ar  319  PHE319     -0.0000
     57  N         30.2020   45.8610   94.1900 N.3   509  TYR509     -0.1241
     58  CA        31.2110   46.9220   94.1700 C.3   509  TYR509      0.1605
     59  C         32.4190   46.0410   93.9100 C.2   509  TYR509      0.2264
     60  O         32.8840   45.9340   92.7800 O.2   509  TYR509     -0.2867
     61  CB        31.3310   47.6000   95.5400 C.3   509  TYR509      0.0534
     62  CG        32.5590   48.4780   95.7620 C.ar  509  TYR509     -0.0201
     63  CD1       33.6240   48.5200   94.8380 C.ar  509  TYR509     -0.0009
     64  CD2       32.6840   49.2110   96.9460 C.ar  509  TYR509     -0.0009
     65  CE1       34.7730   49.2620   95.0990 C.ar  509  TYR509      0.0417
     66  CE2       33.8280   49.9570   97.2160 C.ar  509  TYR509      0.0417
     67  CZ        34.8700   49.9780   96.2900 C.ar  509  TYR509      0.1957
     68  OH        36.0140   50.7150   96.5460 O.3   509  TYR509     -0.2866
     69  N         27.7180   49.8620   90.1430 N.3   591  TRP591     -0.1227
     70  CA        28.0030   51.2340   89.7510 C.3   591  TRP591      0.1737
     71  C         29.5060   51.3570   89.9280 C.2   591  TRP591      0.2596
     72  O         30.0610   50.7440   90.8350 O.2   591  TRP591     -0.2718
     73  CB        27.2720   52.2010   90.6950 C.3   591  TRP591      0.0564
     74  CG        27.1780   53.6150   90.2170 C.ar  591  TRP591      0.0003
     75  CD1       28.1920   54.3830   89.7450 C.ar  591  TRP591      0.0946
     76  CD2       25.9980   54.4300   90.1650 C.ar  591  TRP591      0.0152
     77  NE1       27.7270   55.6260   89.3940 N.ar  591  TRP591     -0.2442
     78  CE2       26.3810   55.6850   89.6410 C.ar  591  TRP591      0.0810
     79  CE3       24.6530   54.2220   90.5080 C.ar  591  TRP591      0.0012
     80  CZ2       25.4670   56.7360   89.4500 C.ar  591  TRP591      0.0191
     81  CZ3       23.7440   55.2660   90.3180 C.ar  591  TRP591      0.0001
     82  CH2       24.1580   56.5090   89.7930 C.ar  591  TRP591      0.0015
     83  N         30.1770   52.1100   89.0620 N.am  592  SER592     -0.1938
     84  CA        31.6280   52.2900   89.1890 C.3   592  SER592      0.2055
     85  C         32.4030   50.9880   89.0240 C.2   592  SER592      0.2643
     86  O         32.3150   50.3260   87.9950 O.2   592  SER592     -0.2714
     87  CB        31.9640   52.8720   90.5580 C.3   592  SER592      0.2130
     88  OG        32.2430   54.2500   90.4760 O.3   592  SER592     -0.2179
     89  N         33.1660   50.6230   90.0500 N.am  593  TYR593     -0.1973
     90  CA        33.9290   49.3870   90.0000 C.3   593  TYR593      0.1639
     91  C         32.9130   48.2410   89.9450 C.2   593  TYR593      0.2290
     92  O         33.1470   47.2070   89.3180 O.2   593  TYR593     -0.2864
     93  CB        34.8360   49.2550   91.2320 C.3   593  TYR593      0.0560
     94  CG        35.9200   48.2200   91.0560 C.ar  593  TYR593     -0.0198
     95  CD1       35.6100   46.8500   91.0800 C.ar  593  TYR593     -0.0009
     96  CD2       37.2370   48.5980   90.7840 C.ar  593  TYR593     -0.0009
     97  CE1       36.5730   45.8820   90.8310 C.ar  593  TYR593      0.0417
     98  CE2       38.2190   47.6360   90.5310 C.ar  593  TYR593      0.0417
     99  CZ        37.8770   46.2750   90.5540 C.ar  593  TYR593      0.1957
    100  OH        38.8290   45.3130   90.2830 O.3   593  TYR593     -0.2866
    101  N         34.0890   50.8710   84.3830 N.3   618  VAL618     -0.1245
    102  CA        35.3990   50.9470   83.7560 C.3   618  VAL618      0.1561
    103  C         35.3260   49.7670   82.7830 C.2   618  VAL618      0.2260
    104  O         34.7100   48.7460   83.1070 O.2   618  VAL618     -0.2867
    105  CB        36.5200   50.6860   84.7830 C.3   618  VAL618      0.0252
    106  CG1       37.7410   50.0960   84.0940 C.3   618  VAL618      0.0019
    107  CG2       36.9060   51.9930   85.4730 C.3   618  VAL618      0.0019
    108  N         41.4210   49.0670   81.8820 N.3   621  TRP621     -0.1241
    109  CA        42.2580   49.8080   82.7870 C.3   621  TRP621      0.1605
    110  C         43.1510   50.8910   82.1880 C.2   621  TRP621      0.2264
    111  O         43.5720   51.8110   82.8850 O.2   621  TRP621     -0.2867
    112  CB        43.0130   48.8000   83.6460 C.3   621  TRP621      0.0550
    113  CG        42.0320   48.1250   84.5500 C.ar  621  TRP621      0.0003
    114  CD1       41.6400   46.8110   84.5250 C.ar  621  TRP621      0.0946
    115  CD2       41.2240   48.7680   85.5400 C.ar  621  TRP621      0.0152
    116  NE1       40.6310   46.6010   85.4380 N.ar  621  TRP621     -0.2442
    117  CE2       40.3550   47.7830   86.0770 C.ar  621  TRP621      0.0810
    118  CE3       41.1490   50.0850   86.0260 C.ar  621  TRP621      0.0012
    119  CZ2       39.4190   48.0710   87.0760 C.ar  621  TRP621      0.0191
    120  CZ3       40.2200   50.3780   87.0180 C.ar  621  TRP621      0.0001
    121  CH2       39.3610   49.3650   87.5350 C.ar  621  TRP621      0.0015
    122  N         41.3750   54.2830   82.5960 N.3   624  TYR624     -0.1241
    123  CA        41.2060   54.8830   83.9090 C.3   624  TYR624      0.1605
    124  C         42.4710   55.5940   84.4020 C.2   624  TYR624      0.2264
    125  O         43.5540   55.3970   83.8360 O.2   624  TYR624     -0.2867
    126  CB        40.7280   53.8350   84.9120 C.3   624  TYR624      0.0534
    127  CG        40.0520   54.4820   86.0700 C.ar  624  TYR624     -0.0201
    128  CD1       39.0360   55.4090   85.8600 C.ar  624  TYR624     -0.0009
    129  CD2       40.4940   54.2640   87.3700 C.ar  624  TYR624     -0.0009
    130  CE1       38.4800   56.1180   86.9130 C.ar  624  TYR624      0.0417
    131  CE2       39.9490   54.9660   88.4370 C.ar  624  TYR624      0.0417
    132  CZ        38.9440   55.8960   88.2020 C.ar  624  TYR624      0.1957
    133  OH        38.4340   56.6310   89.2500 O.3   624  TYR624     -0.2866
    134  N         45.0530   55.5250   90.6350 N.3   628  TYR628     -0.1241
    135  CA        44.2260   54.4300   91.1260 C.3   628  TYR628      0.1605
    136  C         44.5480   53.0990   90.4560 C.2   628  TYR628      0.2264
    137  O         44.7940   52.1030   91.1340 O.2   628  TYR628     -0.2867
    138  CB        42.7390   54.7490   90.9470 C.3   628  TYR628      0.0534
    139  CG        41.8300   53.6410   91.4250 C.ar  628  TYR628     -0.0201
    140  CD1       41.6240   52.4930   90.6510 C.ar  628  TYR628     -0.0009
    141  CD2       41.2060   53.7210   92.6660 C.ar  628  TYR628     -0.0009
    142  CE1       40.8130   51.4460   91.1040 C.ar  628  TYR628      0.0417
    143  CE2       40.3990   52.6840   93.1330 C.ar  628  TYR628      0.0417
    144  CZ        40.1990   51.5490   92.3490 C.ar  628  TYR628      0.1957
    145  OH        39.3610   50.5460   92.8050 O.3   628  TYR628     -0.2866
    146  N         48.0550   51.5720   91.0850 N.3   631  ARG631     -0.1245
    147  CA        48.2140   51.1390   92.4640 C.3   631  ARG631      0.1563
    148  C         47.9370   49.6320   92.5710 C.2   631  ARG631      0.2260
    149  O         48.4280   48.9530   93.4750 O.2   631  ARG631     -0.2867
    150  CB        47.2610   51.9060   93.3860 C.3   631  ARG631      0.0307
    151  CG        47.3470   51.5020   94.8500 C.3   631  ARG631      0.0489
    152  CD        46.8580   52.6410   95.7580 C.3   631  ARG631      0.2205
    153  NE        45.4220   52.8750   95.6470 N.pl3 631  ARG631     -0.0865
    154  CZ        44.8590   54.0710   95.4880 C.cat 631  ARG631      0.5346
    155  NH1       45.6040   55.1670   95.4100 N.pl3 631  ARG631      0.1354
    156  NH2       43.5370   54.1720   95.4320 N.pl3 631  ARG631      0.1354
    157  N         35.3680   61.4110   85.6150 N.3   672  ASN672     -0.1225
    158  CA        36.0920   60.3600   86.3390 C.3   672  ASN672      0.1785
    159  C         36.2310   59.1020   85.4890 C.2   672  ASN672      0.2597
    160  O         37.3170   58.8030   84.9840 O.2   672  ASN672     -0.2718
    161  CB        35.3420   60.0750   87.6360 C.3   672  ASN672      0.1169
    162  CG        36.0760   59.1270   88.5360 C.2   672  ASN672      0.2627
    163  OD1       37.1140   58.5680   88.1610 O.2   672  ASN672     -0.2716
    164  ND2       35.5340   58.9230   89.7400 N.am  672  ASN672     -0.0877
    165  N         35.1440   58.3530   85.3460 N.am  673  VAL673     -0.1980
    166  CA        35.1690   57.1840   84.4860 C.3   673  VAL673      0.1595
    167  C         34.5480   57.7640   83.2170 C.2   673  VAL673      0.2287
    168  O         33.3420   57.9640   83.1460 O.2   673  VAL673     -0.2864
    169  CB        34.3050   56.0160   85.0210 C.3   673  VAL673      0.0276
    170  CG1       34.3430   54.8580   84.0240 C.3   673  VAL673      0.0022
    171  CG2       34.8370   55.5480   86.3660 C.3   673  VAL673      0.0022
    172  N         29.8960   61.1710   87.0310 N.3   702  HIS702     -0.1241
    173  CA        29.9820   59.8420   87.6410 C.3   702  HIS702      0.1621
    174  C         28.9340   59.5600   88.6960 C.2   702  HIS702      0.2264
    175  O         28.6280   58.4030   88.9880 O.2   702  HIS702     -0.2867
    176  CB        31.3680   59.6190   88.2510 C.3   702  HIS702      0.0745
    177  CG        31.7170   58.1750   88.4340 C.ar  702  HIS702      0.0817
    178  ND1       31.7010   57.2700   87.3930 N.ar  702  HIS702     -0.2268
    179  CD2       32.0960   57.4800   89.5310 C.ar  702  HIS702      0.1154
    180  CE1       32.0550   56.0790   87.8430 C.ar  702  HIS702      0.1986
    181  NE2       32.3010   56.1790   89.1370 N.ar  702  HIS702     -0.2212
@<TRIPOS>BOND
     1   108   109    1
     2   110   109    1
     3   110   111    2
     4   122   123    1
     5   103   104    2
     6   103   102    1
     7   109   112    1
     8   168   167    2
     9   167   166    1
    10   112   113    1
    11   102   101    1
    12   102   105    1
    13   125   124    2
    14   123   124    1
    15   123   126    1
    16   170   169    1
    17   106   105    1
    18   166   169    1
    19   166   165    1
    20   114   113   ar
    21   114   116   ar
    22   113   115   ar
    23   105   107    1
    24   126   127    1
    25   160   159    2
    26   169   171    1
    27   165   159   am
    28   116   117   ar
    29   159   158    1
    30   115   118   ar
    31   115   117   ar
    32   157   158    1
    33   128   127   ar
    34   128   130   ar
    35   118   120   ar
    36   127   129   ar
    37   117   119   ar
    38   158   161    1
    39   130   132   ar
    40   120   121   ar
    41   172   173    1
    42   119   121   ar
    43   129   131   ar
    44   178   180   ar
    45   178   177   ar
    46   161   162    1
    47   173   176    1
    48   173   174    1
    49   180   181   ar
    50    86    85    2
    51   163   162    2
    52   132   131   ar
    53   132   133    1
    54   176   177    1
    55   177   179   ar
    56   162   164   am
    57   174   175    2
    58    85    84    1
    59    85    89   am
    60    83    84    1
    61    83    71   am
    62   181   179   ar
    63    84    87    1
    64    92    91    2
    65    77    78   ar
    66    77    75   ar
    67    80    78   ar
    68    80    82   ar
    69    78    76   ar
    70    75    74   ar
    71    70    71    1
    72    70    69    1
    73    70    73    1
    74    82    81   ar
    75    71    72    2
    76    91    90    1
    77    90    89    1
    78    90    93    1
    79    76    74   ar
    80    76    79   ar
    81    74    73    1
    82   100    99    1
    83    81    79   ar
    84   136   135    1
    85   136   137    2
    86    88    87    1
    87    98    99   ar
    88    98    96   ar
    89    99    97   ar
    90   134   135    1
    91   140   142   ar
    92   140   139   ar
    93    96    94   ar
    94    97    95   ar
    95    39    37   ar
    96   138   135    1
    97   138   139    1
    98    94    95   ar
    99    94    93    1
   100   146   147    1
   101   142   144   ar
   102   139   141   ar
   103    36    37    1
   104    36    35    1
   105    27    26    1
   106    27    28    1
   107    26    23    1
   108    37    38   ar
   109     1     2    1
   110   144   145    1
   111   144   143   ar
   112   147   148    1
   113   147   150    1
   114    28    30   ar
   115    28    29   ar
   116   148   149    2
   117   141   143   ar
   118    60    59    2
   119    35    32    1
   120    11     9    1
   121    22    23    1
   122    23    24    1
   123   150   151    1
   124     2     5    1
   125     2     3    1
   126    31    24   am
   127    31    32    1
   128     5     6    1
   129    59    58    1
   130     9     8    2
   131     9    10    1
   132    24    25    2
   133    32    33    1
   134    58    57    1
   135    58    61    1
   136     8     7    1
   137     3    12   am
   138     3     4    2
   139    63    65   ar
   140    63    62   ar
   141   151   152    1
   142    12    13    1
   143     6     7    1
   144    65    67   ar
   145    33    34    2
   146   155   154    1
   147   156   154    1
   148   154   153    2
   149    61    62    1
   150   153   152    1
   151    14    13    1
   152    14    15    2
   153    62    64   ar
   154    13    16    1
   155    67    68    1
   156    67    66   ar
   157    19    17   ar
   158    19    21   ar
   159    16    17    1
   160    64    66   ar
   161    17    18   ar
   162    21    20   ar
   163    54    52   ar
   164    54    56   ar
   165    52    51   ar
   166    18    20   ar
   167    40    41    1
   168    49    48    2
   169    41    42    1
   170    41    44    1
   171    42    43    2
   172    56    55   ar
   173    51    50    1
   174    51    53   ar
   175    48    47    1
   176    44    45    1
   177    47    50    1
   178    47    46    1
   179    55    53   ar
