@<TRIPOS>MOLECULE
tmp/2oh2F00.pdb
 162 155 0 0 0
SMALL
GASTEIGER

@<TRIPOS>ATOM
      1  N         33.1710   36.0230  111.6810 N.3     6  ALA6       -0.1245
      2  CA        32.0100   36.8820  111.9320 C.3     6  ALA6        0.1562
      3  C         32.2480   38.3220  111.4780 C.2     6  ALA6        0.2260
      4  O         32.2030   39.2460  112.2910 O.2     6  ALA6       -0.2867
      5  CB        31.6670   36.8720  113.4240 C.3     6  ALA6        0.0290
      6  N         20.1780   43.5240  111.4250 N.3    87  ASP87      -0.1225
      7  CA        21.1080   43.1170  112.4670 C.3    87  ASP87       0.1805
      8  C         21.9700   44.3020  112.9100 C.2    87  ASP87       0.2598
      9  O         22.6770   44.9170  112.1130 O.2    87  ASP87      -0.2718
     10  CB        21.9910   41.9590  111.9640 C.3    87  ASP87       0.1424
     11  CG        23.0150   41.4860  113.0070 C.2    87  ASP87       0.3668
     12  OD1       23.8650   42.2960  113.4280 O.co2  87  ASP87      -0.2456
     13  OD2       22.9800   40.2980  113.4000 O.co2  87  ASP87      -0.2456
     14  N         21.8890   44.6240  114.1940 N.am   88  MET88      -0.1965
     15  CA        22.6720   45.7170  114.7480 C.3    88  MET88       0.1736
     16  C         24.1450   45.3350  114.6690 C.2    88  MET88       0.2616
     17  O         24.5100   44.2240  115.0340 O.2    88  MET88      -0.2715
     18  CB        22.2800   45.9580  116.2130 C.3    88  MET88       0.0427
     19  CG        20.8400   46.4150  116.4350 C.3    88  MET88       0.0599
     20  SD        20.4830   47.9320  115.5550 S.3    88  MET88      -0.1393
     21  CE        21.5810   49.0750  116.3860 C.3    88  MET88       0.0692
     22  N         24.9920   46.2440  114.2030 N.am   89  ASP89      -0.1957
     23  CA        26.4220   45.9550  114.1050 C.3    89  ASP89       0.1840
     24  C         27.1440   46.0570  115.4530 C.2    89  ASP89       0.2622
     25  O         27.1700   47.1200  116.0750 O.2    89  ASP89      -0.2715
     26  CB        27.0760   46.9020  113.1000 C.3    89  ASP89       0.1450
     27  CG        26.3740   46.8940  111.7650 C.2    89  ASP89       0.3671
     28  OD1       26.2410   45.8060  111.1770 O.co2  89  ASP89      -0.2456
     29  OD2       25.9470   47.9690  111.3040 O.co2  89  ASP89      -0.2456
     30  N         27.7240   44.9460  115.8980 N.am   90  ALA90      -0.1963
     31  CA        28.4610   44.8920  117.1610 C.3    90  ALA90       0.1728
     32  C         27.6610   45.3700  118.3810 C.2    90  ALA90       0.2616
     33  O         28.2390   45.7810  119.3910 O.2    90  ALA90      -0.2715
     34  CB        29.7670   45.6930  117.0380 C.3    90  ALA90       0.0334
     35  N         26.3360   45.2890  118.2830 N.am   91  PHE91      -0.1960
     36  CA        25.4120   45.6980  119.3450 C.3    91  PHE91       0.1771
     37  C         26.0420   46.0310  120.7120 C.2    91  PHE91       0.2619
     38  O         26.4550   47.1650  120.9260 O.2    91  PHE91      -0.2715
     39  CB        24.3220   44.6300  119.4910 C.3    91  PHE91       0.0574
     40  CG        23.1200   45.0790  120.2730 C.ar   91  PHE91      -0.0200
     41  CD1       22.6060   46.3610  120.1140 C.ar   91  PHE91      -0.0042
     42  CD2       22.4650   44.1960  121.1330 C.ar   91  PHE91      -0.0042
     43  CE1       21.4580   46.7560  120.7990 C.ar   91  PHE91      -0.0003
     44  CE2       21.3140   44.5790  121.8240 C.ar   91  PHE91      -0.0003
     45  CZ        20.8110   45.8610  121.6560 C.ar   91  PHE91      -0.0000
     46  N         26.1270   45.0660  121.6270 N.am   92  TYR92      -0.1974
     47  CA        26.7010   45.3240  122.9540 C.3    92  TYR92       0.1639
     48  C         27.9300   46.2380  122.9520 C.2    92  TYR92       0.2290
     49  O         27.8960   47.3250  123.5070 O.2    92  TYR92      -0.2864
     50  CB        27.0920   44.0250  123.6700 C.3    92  TYR92       0.0560
     51  CG        25.9620   43.0970  124.0840 C.ar   92  TYR92      -0.0198
     52  CD1       26.2190   42.0120  124.9300 C.ar   92  TYR92      -0.0009
     53  CD2       24.6640   43.2630  123.6060 C.ar   92  TYR92      -0.0009
     54  CE1       25.2230   41.1180  125.2870 C.ar   92  TYR92       0.0417
     55  CE2       23.6510   42.3710  123.9580 C.ar   92  TYR92       0.0417
     56  CZ        23.9410   41.2990  124.8020 C.ar   92  TYR92       0.1957
     57  OH        22.9540   40.4040  125.1720 O.3    92  TYR92      -0.2866
     58  N         33.7110   36.4130  126.3070 N.3   116  LEU116     -0.1231
     59  CA        33.3270   37.6890  125.7140 C.3   116  LEU116      0.1693
     60  C         32.0500   37.5420  124.8890 C.2   116  LEU116      0.2593
     61  O         31.9430   36.6360  124.0620 O.2   116  LEU116     -0.2718
     62  CB        34.4410   38.2110  124.8090 C.3   116  LEU116      0.0284
     63  CG        35.8740   38.2340  125.3430 C.3   116  LEU116      0.0019
     64  CD1       36.7790   38.8120  124.2740 C.3   116  LEU116      0.0001
     65  CD2       35.9720   39.0590  126.6100 C.3   116  LEU116      0.0001
     66  N         31.0830   38.4290  125.1110 N.am  117  SER117     -0.1938
     67  CA        29.8310   38.3830  124.3620 C.3   117  SER117      0.2055
     68  C         30.1150   38.7900  122.9240 C.2   117  SER117      0.2643
     69  O         29.5250   38.2470  121.9910 O.2   117  SER117     -0.2714
     70  CB        28.8020   39.3230  124.9860 C.3   117  SER117      0.2130
     71  OG        28.4910   38.9160  126.3100 O.3   117  SER117     -0.2179
     72  N         31.0230   39.7530  122.7640 N.am  118  THR118     -0.1950
     73  CA        31.4640   40.2450  121.4540 C.3   118  THR118      0.1897
     74  C         32.6000   41.2430  121.5740 C.2   118  THR118      0.2313
     75  O         33.1460   41.4580  122.6520 O.2   118  THR118     -0.2863
     76  CB        30.3490   40.9350  120.6310 C.3   118  THR118      0.1794
     77  OG1       29.4700   41.6550  121.5000 O.3   118  THR118     -0.2208
     78  CG2       29.5930   39.9180  119.7970 C.3   118  THR118      0.0378
     79  N         34.4300   46.0200  115.7870 N.3   121  TYR121     -0.1241
     80  CA        35.0720   45.6060  114.5450 C.3   121  TYR121      0.1605
     81  C         36.5710   45.8310  114.4790 C.2   121  TYR121      0.2264
     82  O         37.2690   45.1470  113.7300 O.2   121  TYR121     -0.2867
     83  CB        34.4050   46.2830  113.3490 C.3   121  TYR121      0.0534
     84  CG        33.1680   45.5620  112.8920 C.ar  121  TYR121     -0.0201
     85  CD1       32.5370   45.9010  111.7000 C.ar  121  TYR121     -0.0009
     86  CD2       32.6370   44.5230  113.6470 C.ar  121  TYR121     -0.0009
     87  CE1       31.4100   45.2170  111.2760 C.ar  121  TYR121      0.0417
     88  CE2       31.5160   43.8340  113.2370 C.ar  121  TYR121      0.0417
     89  CZ        30.9060   44.1830  112.0540 C.ar  121  TYR121      0.1957
     90  OH        29.7860   43.4970  111.6630 O.3   121  TYR121     -0.2866
     91  N         38.3900   43.0730  116.2200 N.3   124  ARG124     -0.1245
     92  CA        38.1640   41.8220  115.5150 C.3   124  ARG124      0.1563
     93  C         39.2930   41.6300  114.5060 C.2   124  ARG124      0.2260
     94  O         39.5710   40.5110  114.0600 O.2   124  ARG124     -0.2867
     95  CB        36.7920   41.8540  114.8230 C.3   124  ARG124      0.0307
     96  CG        35.6260   41.6990  115.7990 C.3   124  ARG124      0.0489
     97  CD        34.3590   42.3840  115.3130 C.3   124  ARG124      0.2205
     98  NE        33.3610   41.4680  114.7680 N.pl3 124  ARG124     -0.0865
     99  CZ        32.1140   41.3520  115.2260 C.cat 124  ARG124      0.5346
    100  NH1       31.6890   42.0910  116.2470 N.pl3 124  ARG124      0.1354
    101  NH2       31.2830   40.4920  114.6560 N.pl3 124  ARG124      0.1354
    102  N         37.1720   37.6160  118.6160 N.3   129  ARG129     -0.1231
    103  CA        35.7640   37.4460  118.2890 C.3   129  ARG129      0.1694
    104  C         34.9980   37.0670  119.5390 C.2   129  ARG129      0.2592
    105  O         35.5770   36.9140  120.6110 O.2   129  ARG129     -0.2718
    106  CB        35.5970   36.3420  117.2100 C.3   129  ARG129      0.0321
    107  CG        34.5650   36.6400  116.1350 C.3   129  ARG129      0.0489
    108  CD        33.1510   36.5020  116.6840 C.3   129  ARG129      0.2205
    109  NE        32.6840   35.1110  116.6840 N.pl3 129  ARG129     -0.0865
    110  CZ        31.4860   34.7030  117.1240 C.cat 129  ARG129      0.5346
    111  NH1       30.6180   35.5820  117.6310 N.pl3 129  ARG129      0.1354
    112  NH2       31.1480   33.4120  117.0850 N.pl3 129  ARG129      0.1354
    113  N         33.6890   36.9120  119.3800 N.am  130  ALA130     -0.1966
    114  CA        32.8070   36.5260  120.4700 C.3   130  ALA130      0.1728
    115  C         33.0110   35.0460  120.8400 C.2   130  ALA130      0.2616
    116  O         33.5240   34.2600  120.0420 O.2   130  ALA130     -0.2715
    117  CB        31.3600   36.7720  120.0560 C.3   130  ALA130      0.0334
    118  N         32.5980   34.6770  122.0510 N.am  131  ALA131     -0.1977
    119  CA        32.7220   33.3090  122.5490 C.3   131  ALA131      0.1597
    120  C         34.1730   32.9600  122.8140 C.2   131  ALA131      0.2287
    121  O         34.5220   31.7910  122.9930 O.2   131  ALA131     -0.2864
    122  CB        32.1210   32.3200  121.5630 C.3   131  ALA131      0.0319
    123  N         16.5070   38.0280  118.4150 N.3   176  SER176     -0.1217
    124  CA        17.3210   38.3380  119.5800 C.3   176  SER176      0.1889
    125  C         17.1280   39.8190  119.9310 C.2   176  SER176      0.2288
    126  O         16.1690   40.4580  119.4770 O.2   176  SER176     -0.2866
    127  CB        18.8000   38.0630  119.2910 C.3   176  SER176      0.2089
    128  OG        19.4300   39.1810  118.6890 O.3   176  SER176     -0.2183
    129  N         19.3130   42.3180  119.2080 N.3   178  ASP178     -0.1225
    130  CA        19.7460   43.1450  118.0830 C.3   178  ASP178      0.1805
    131  C         19.3260   42.6790  116.6950 C.2   178  ASP178      0.2597
    132  O         19.8030   43.2210  115.6950 O.2   178  ASP178     -0.2718
    133  CB        21.2630   43.2820  118.0860 C.3   178  ASP178      0.1424
    134  CG        21.9350   42.1860  117.3010 C.2   178  ASP178      0.3668
    135  OD1       21.6540   41.0040  117.5940 O.co2 178  ASP178     -0.2456
    136  OD2       22.7340   42.4990  116.3920 O.co2 178  ASP178     -0.2456
    137  N         18.4440   41.6900  116.6180 N.am  179  GLU179     -0.1979
    138  CA        18.0150   41.1890  115.3170 C.3   179  GLU179      0.1602
    139  C         16.5050   41.0790  115.2220 C.2   179  GLU179      0.2287
    140  O         15.8240   40.9020  116.2290 O.2   179  GLU179     -0.2864
    141  CB        18.6290   39.8110  115.0410 C.3   179  GLU179      0.0415
    142  CG        20.1500   39.7630  115.0910 C.3   179  GLU179      0.1163
    143  CD        20.7090   38.3920  114.7520 C.2   179  GLU179      0.3649
    144  OE1       21.9420   38.2170  114.8670 O.co2 179  GLU179     -0.2457
    145  OE2       19.9210   37.4950  114.3680 O.co2 179  GLU179     -0.2457
    146  N         24.3540   39.7300  106.7330 N.3   248  ASP248     -0.1239
    147  CA        25.7610   39.6060  107.0970 C.3   248  ASP248      0.1674
    148  C         26.7310   39.8090  105.9500 C.2   248  ASP248      0.2266
    149  O         27.9260   39.9240  106.1760 O.2   248  ASP248     -0.2867
    150  CB        26.0340   38.2420  107.7510 C.3   248  ASP248      0.1410
    151  CG        25.5540   38.1710  109.2000 C.2   248  ASP248      0.3668
    152  OD1       24.3240   38.1100  109.4300 O.co2 248  ASP248     -0.2456
    153  OD2       26.4120   38.1780  110.1110 O.co2 248  ASP248     -0.2456
    154  N         27.8040   43.2490  106.7160 N.3   251  LYS251     -0.1245
    155  CA        27.8720   43.4860  108.1600 C.3   251  LYS251      0.1561
    156  C         28.5280   44.7850  108.6400 C.2   251  LYS251      0.2260
    157  O         27.9910   45.4670  109.5110 O.2   251  LYS251     -0.2867
    158  CB        28.5640   42.2990  108.8380 C.3   251  LYS251      0.0271
    159  CG        28.1570   42.0300  110.2880 C.3   251  LYS251      0.0035
    160  CD        26.7400   41.4810  110.4150 C.3   251  LYS251      0.0206
    161  CE        25.7120   42.5840  110.5280 C.3   251  LYS251      0.1093
    162  NZ        25.8670   43.3160  111.8070 N.3   251  LYS251     -0.1314
@<TRIPOS>BOND
     1   148   149    2
     2   148   147    1
     3   154   155    1
     4   146   147    1
     5   147   150    1
     6   150   151    1
     7   155   156    1
     8   155   158    1
     9   156   157    2
    10   158   159    1
    11   151   152   ar
    12   151   153   ar
    13   159   160    1
    14   160   161    1
    15   161   162    1
    16    28    27   ar
    17    87    85   ar
    18    87    89   ar
    19    29    27   ar
    20     6     7    1
    21     3     2    1
    22     3     4    2
    23    90    89    1
    24     1     2    1
    25    85    84   ar
    26    27    26    1
    27     2     5    1
    28    10     7    1
    29    10    11    1
    30    89    88   ar
    31     9     8    2
    32     7     8    1
    33    84    83    1
    34    84    86   ar
    35     8    14   am
    36    11    13   ar
    37    11    12   ar
    38    26    23    1
    39    88    86   ar
    40    83    80    1
    41    82    81    2
    42    94    93    2
    43    23    22    1
    44    23    24    1
    45    14    15    1
    46    22    16   am
    47   145   143   ar
    48    81    80    1
    49    93    92    1
    50    80    79    1
    51   101    99    1
    52    16    15    1
    53    16    17    2
    54    15    18    1
    55   143   144   ar
    56   143   142    1
    57    98    99    2
    58    98    97    1
    59    95    92    1
    60    95    96    1
    61   141   142    1
    62   141   138    1
    63   139   138    1
    64   139   140    2
    65    99   100    1
    66    97    96    1
    67   138   137    1
    68    24    30   am
    69    24    25    2
    70    92    91    1
    71    20    21    1
    72    20    19    1
    73   132   131    2
    74    30    31    1
    75   107   108    1
    76   107   106    1
    77    18    19    1
    78   136   134   ar
    79   137   131   am
    80   109   108    1
    81   109   110    2
    82   131   130    1
    83    34    31    1
    84   112   110    1
    85   110   111    1
    86    31    32    1
    87   106   103    1
    88   134   135   ar
    89   134   133    1
    90   130   133    1
    91   130   129    1
    92    35    32   am
    93    35    36    1
    94   103   102    1
    95   103   104    1
    96    32    33    2
    97   123   124    1
    98   128   127    1
    99   127   124    1
   100    36    39    1
   101    36    37    1
   102   113   104   am
   103   113   114    1
   104   126   125    2
   105    39    40    1
   106   104   105    2
   107   124   125    1
   108    78    76    1
   109   116   115    2
   110   117   114    1
   111    41    40   ar
   112    41    43   ar
   113    40    42   ar
   114   114   115    1
   115    76    73    1
   116    76    77    1
   117    37    38    2
   118    37    46   am
   119    43    45   ar
   120   115   118   am
   121    42    44   ar
   122    73    74    1
   123    73    72    1
   124   122   119    1
   125    74    75    2
   126    46    47    1
   127    45    44   ar
   128    69    68    2
   129   118   119    1
   130   119   120    1
   131    72    68   am
   132   120   121    2
   133    68    67    1
   134    48    47    1
   135    48    49    2
   136    47    50    1
   137    53    55   ar
   138    53    51   ar
   139    50    51    1
   140    55    56   ar
   141    61    60    2
   142    51    52   ar
   143    64    63    1
   144    67    70    1
   145    67    66    1
   146    56    57    1
   147    56    54   ar
   148    62    63    1
   149    62    59    1
   150    60    66   am
   151    60    59    1
   152    52    54   ar
   153    70    71    1
   154    63    65    1
   155    59    58    1
