@<TRIPOS>MOLECULE
tmp/2oh4A00.pdb
 213 203 0 0 0
SMALL
GASTEIGER

@<TRIPOS>ATOM
      1  N         -3.9530   25.7790   15.3130 N.3    25  LEU25      -0.1245
      2  CA        -3.0850   26.1540   16.4220 C.3    25  LEU25       0.1561
      3  C         -3.7720   27.1430   17.3570 C.2    25  LEU25       0.2260
      4  O         -3.4100   27.2480   18.5240 O.2    25  LEU25      -0.2867
      5  CB        -1.8070   26.7950   15.8870 C.3    25  LEU25       0.0270
      6  CG        -0.8130   25.8550   15.2280 C.3    25  LEU25       0.0019
      7  CD1        0.2610   26.6700   14.5330 C.3    25  LEU25       0.0001
      8  CD2       -0.2280   24.9080   16.2720 C.3    25  LEU25       0.0001
      9  N         -5.3580   30.4400   13.0790 N.3    33  VAL33      -0.1245
     10  CA        -4.0250   30.0330   12.7460 C.3    33  VAL33       0.1561
     11  C         -3.9790   28.5240   12.6600 C.2    33  VAL33       0.2260
     12  O         -4.4810   27.8250   13.5480 O.2    33  VAL33      -0.2867
     13  CB        -2.9940   30.5010   13.7770 C.3    33  VAL33       0.0252
     14  CG1       -1.5840   30.1240   13.2930 C.3    33  VAL33       0.0019
     15  CG2       -3.0940   32.0230   14.0060 C.3    33  VAL33       0.0019
     16  N          3.3690   28.2850   10.6980 N.3    51  ALA51      -0.1245
     17  CA         2.0440   28.6780   11.1570 C.3    51  ALA51       0.1562
     18  C          1.4220   29.6240   10.1270 C.2    51  ALA51       0.2260
     19  O          2.0580   30.5580    9.6570 O.2    51  ALA51      -0.2867
     20  CB         2.1140   29.3330   12.5390 C.3    51  ALA51       0.0290
     21  N         -1.6990   32.1610    9.3990 N.3    53  LYS53      -0.1245
     22  CA        -2.8750   32.9400    9.7970 C.3    53  LYS53       0.1561
     23  C         -3.7410   33.1970    8.5640 C.2    53  LYS53       0.2260
     24  O         -3.2790   33.6310    7.4940 O.2    53  LYS53      -0.2867
     25  CB        -2.5090   34.2560   10.4720 C.3    53  LYS53       0.0271
     26  CG        -3.7070   34.9640   11.1100 C.3    53  LYS53       0.0035
     27  CD        -3.2360   36.0350   12.1130 C.3    53  LYS53       0.0206
     28  CE        -4.3730   36.8960   12.6190 C.3    53  LYS53       0.1093
     29  NZ        -3.8800   37.8900   13.5940 N.3    53  LYS53      -0.1314
     30  N         -1.9690   43.4740    8.8030 N.3    70  GLU70      -0.1245
     31  CA        -1.0000   42.7560    9.6190 C.3    70  GLU70       0.1567
     32  C          0.2060   42.3160    8.7940 C.2    70  GLU70       0.2260
     33  O          1.3710   42.4350    9.2360 O.2    70  GLU70      -0.2867
     34  CB        -1.6720   41.5620   10.3050 C.3    70  GLU70       0.0388
     35  CG        -0.6970   40.6950   11.0950 C.3    70  GLU70       0.1160
     36  CD        -1.3680   39.7450   12.0580 C.2    70  GLU70       0.3649
     37  OE1       -2.6110   39.5230   11.9630 O.co2  70  GLU70      -0.2457
     38  OE2       -0.6160   39.1890   12.8990 O.co2  70  GLU70      -0.2457
     39  N          2.3300   45.2750    8.1210 N.3    73  ILE73      -0.1231
     40  CA         2.9900   45.6430    9.3760 C.3    73  ILE73       0.1692
     41  C          4.2240   44.7530    9.5880 C.2    73  ILE73       0.2591
     42  O          5.3190   45.2480    9.8790 O.2    73  ILE73      -0.2718
     43  CB         2.0270   45.5670   10.6060 C.3    73  ILE73       0.0266
     44  CG1        1.0430   46.7420   10.5920 C.3    73  ILE73       0.0019
     45  CG2        2.8070   45.6390   11.9300 C.3    73  ILE73       0.0020
     46  CD1       -0.0900   46.6040   11.6500 C.3    73  ILE73       0.0001
     47  N          4.0520   43.4540    9.4000 N.am   74  LEU74      -0.1980
     48  CA         5.1370   42.5060    9.5720 C.3    74  LEU74       0.1596
     49  C          6.2810   42.7360    8.5690 C.2    74  LEU74       0.2287
     50  O          7.4540   42.6860    8.9340 O.2    74  LEU74      -0.2864
     51  CB         4.6140   41.0800    9.4850 C.3    74  LEU74       0.0297
     52  CG         3.7470   40.5770   10.6470 C.3    74  LEU74       0.0022
     53  CD1        3.2120   39.1860   10.2920 C.3    74  LEU74       0.0001
     54  CD2        4.4900   40.5390   11.9650 C.3    74  LEU74       0.0001
     55  N          8.0950   45.8870    9.8710 N.3    77  ILE77      -0.1245
     56  CA         8.9490   45.6010   11.0220 C.3    77  ILE77       0.1561
     57  C         10.2820   44.9950   10.5610 C.2    77  ILE77       0.2260
     58  O         11.3590   45.4450   10.9710 O.2    77  ILE77      -0.2867
     59  CB         8.2390   44.6680   12.0380 C.3    77  ILE77       0.0252
     60  CG1        7.0860   45.3950   12.7390 C.3    77  ILE77       0.0019
     61  CG2        9.1990   44.1540   13.1070 C.3    77  ILE77       0.0019
     62  CD1        6.0900   44.4490   13.3900 C.3    77  ILE77       0.0001
     63  N         11.7770   38.2880   17.2220 N.3    83  VAL83      -0.1231
     64  CA        10.4530   38.7340   16.7910 C.3    83  VAL83       0.1692
     65  C          9.8650   37.6900   15.8620 C.2    83  VAL83       0.2591
     66  O         10.5910   37.0740   15.0590 O.2    83  VAL83      -0.2718
     67  CB        10.5390   40.0970   16.0980 C.3    83  VAL83       0.0266
     68  CG1        9.2570   40.4430   15.4010 C.3    83  VAL83       0.0020
     69  CG2       10.9100   41.1930   17.1360 C.3    83  VAL83       0.0020
     70  N          8.5530   37.4840   15.9890 N.am   84  VAL84      -0.1980
     71  CA         7.7610   36.6580   15.0520 C.3    84  VAL84       0.1595
     72  C          8.2690   36.8150   13.6170 C.2    84  VAL84       0.2287
     73  O          8.3120   37.9060   13.1120 O.2    84  VAL84      -0.2864
     74  CB         6.2280   37.0610   15.0870 C.3    84  VAL84       0.0276
     75  CG1        6.0570   38.5600   14.9560 C.3    84  VAL84       0.0022
     76  CG2        5.4420   36.3800   13.9620 C.3    84  VAL84       0.0022
     77  N         -1.1950   34.3760    5.7610 N.3    99  VAL99      -0.1245
     78  CA         0.0570   34.9530    6.2460 C.3    99  VAL99       0.1561
     79  C          0.8630   33.8670    6.9550 C.2    99  VAL99       0.2260
     80  O          0.3840   33.2610    7.8860 O.2    99  VAL99      -0.2867
     81  CB        -0.2030   36.1440    7.1930 C.3    99  VAL99       0.0252
     82  CG1        1.1270   36.7280    7.7150 C.3    99  VAL99       0.0019
     83  CG2       -1.0490   37.2070    6.4650 C.3    99  VAL99       0.0019
     84  N          4.0570   32.4730    9.0250 N.3   101  VAL101     -0.1231
     85  CA         5.1130   32.8530    9.9790 C.3   101  VAL101      0.1692
     86  C          5.7750   31.5920   10.5140 C.2   101  VAL101      0.2592
     87  O          5.2450   30.5070   10.3520 O.2   101  VAL101     -0.2718
     88  CB         4.6070   33.7350   11.1550 C.3   101  VAL101      0.0266
     89  CG1        3.8820   35.0070   10.6330 C.3   101  VAL101      0.0020
     90  CG2        3.7100   32.9650   12.0930 C.3   101  VAL101      0.0020
     91  N          6.9380   31.7430   11.1300 N.am  102  GLU102     -0.1966
     92  CA         7.6190   30.6090   11.6780 C.3   102  GLU102      0.1733
     93  C          6.8420   29.9950   12.8230 C.2   102  GLU102      0.2616
     94  O          6.1870   30.7020   13.5870 O.2   102  GLU102     -0.2715
     95  CB         9.0200   30.9900   12.1450 C.3   102  GLU102      0.0429
     96  CG         9.0790   31.8570   13.3760 C.3   102  GLU102      0.1163
     97  CD        10.5290   32.1040   13.7940 C.2   102  GLU102      0.3649
     98  OE1       11.3470   31.1300   13.7400 O.co2 102  GLU102     -0.2457
     99  OE2       10.8280   33.2700   14.1600 O.co2 102  GLU102     -0.2457
    100  N          6.9350   28.6680   12.9100 N.am  103  PHE103     -0.1960
    101  CA         6.3380   27.8590   13.9660 C.3   103  PHE103      0.1771
    102  C          7.3680   27.6930   15.0850 C.2   103  PHE103      0.2620
    103  O          8.5250   27.4480   14.8230 O.2   103  PHE103     -0.2715
    104  CB         5.9430   26.4840   13.3890 C.3   103  PHE103      0.0574
    105  CG         5.3070   25.5580   14.3770 C.ar  103  PHE103     -0.0200
    106  CD1        3.9890   25.7340   14.7620 C.ar  103  PHE103     -0.0042
    107  CD2        6.0160   24.4820   14.8980 C.ar  103  PHE103     -0.0042
    108  CE1        3.4020   24.8730   15.6620 C.ar  103  PHE103     -0.0003
    109  CE2        5.4350   23.6140   15.7960 C.ar  103  PHE103     -0.0003
    110  CZ         4.1280   23.8110   16.1860 C.ar  103  PHE103     -0.0000
    111  N          6.9190   27.8460   16.3230 N.am  104  CYS104     -0.1954
    112  CA         7.7580   27.7880   17.5130 C.3   104  CYS104      0.1843
    113  C          7.2530   26.6180   18.3350 C.2   104  CYS104      0.2625
    114  O          6.2150   26.7070   19.0090 O.2   104  CYS104     -0.2714
    115  CB         7.6330   29.0840   18.3130 C.3   104  CYS104      0.0997
    116  SG         8.1220   30.5340   17.3610 S.3   104  CYS104     -0.0797
    117  N          7.9850   25.5210   18.2770 N.am  105  LYS105     -0.1963
    118  CA         7.4390   24.2380   18.6840 C.3   105  LYS105      0.1728
    119  C          7.0330   24.0980   20.1610 C.2   105  LYS105      0.2616
    120  O          6.2000   23.2490   20.4780 O.2   105  LYS105     -0.2715
    121  CB         8.3820   23.1020   18.2610 C.3   105  LYS105      0.0311
    122  CG         9.7320   23.0660   18.9590 C.3   105  LYS105      0.0038
    123  CD        10.2920   21.6380   18.9940 C.3   105  LYS105      0.0206
    124  CE        10.3420   21.0010   17.6010 C.3   105  LYS105      0.1093
    125  NZ        10.9480   19.6290   17.6300 N.3   105  LYS105     -0.1314
    126  N          7.5730   24.9310   21.0540 N.am  106  PHE106     -0.1960
    127  CA         7.2570   24.8010   22.4780 C.3   106  PHE106      0.1771
    128  C          6.0960   25.6890   22.9190 C.2   106  PHE106      0.2620
    129  O          5.6810   25.6300   24.0760 O.2   106  PHE106     -0.2715
    130  CB         8.4990   25.0500   23.3380 C.3   106  PHE106      0.0574
    131  CG         9.5370   23.9820   23.2000 C.ar  106  PHE106     -0.0200
    132  CD1        9.4160   22.7920   23.8930 C.ar  106  PHE106     -0.0042
    133  CD2       10.6080   24.1470   22.3420 C.ar  106  PHE106     -0.0042
    134  CE1       10.3700   21.7800   23.7540 C.ar  106  PHE106     -0.0003
    135  CE2       11.5610   23.1500   22.1880 C.ar  106  PHE106     -0.0003
    136  CZ        11.4450   21.9640   22.8940 C.ar  106  PHE106     -0.0000
    137  N          5.5740   26.4980   22.0000 N.am  107  GLY107     -0.1954
    138  CA         4.4140   27.3370   22.2780 C.3   107  GLY107      0.1869
    139  C          4.7040   28.4950   23.2220 C.2   107  GLY107      0.2309
    140  O          5.8560   28.9300   23.3590 O.2   107  GLY107     -0.2863
    141  N         12.0130   46.3190   18.1260 N.3   147  LEU147     -0.1245
    142  CA        10.6900   46.8530   17.8100 C.3   147  LEU147      0.1561
    143  C         10.6180   48.3660   18.0290 C.2   147  LEU147      0.2260
    144  O         10.0560   49.0980   17.2080 O.2   147  LEU147     -0.2867
    145  CB         9.6150   46.1250   18.6290 C.3   147  LEU147      0.0270
    146  CG         9.2440   44.7130   18.1810 C.3   147  LEU147      0.0019
    147  CD1        8.2150   44.0910   19.1490 C.3   147  LEU147      0.0001
    148  CD2        8.6780   44.7490   16.7590 C.3   147  LEU147      0.0001
    149  N          7.7140   50.8220   16.6730 N.3   152  CYS152     -0.1221
    150  CA         6.5380   50.0330   17.0060 C.3   152  CYS152      0.1808
    151  C          6.3550   50.0490   18.5130 C.2   152  CYS152      0.2601
    152  O          7.3250   50.1320   19.2510 O.2   152  CYS152     -0.2717
    153  CB         6.6910   48.5960   16.5150 C.3   152  CYS152      0.0970
    154  SG         6.8840   48.4730   14.7550 S.3   152  CYS152     -0.0800
    155  N          5.1040   50.0040   18.9540 N.am  153  ILE153     -0.1965
    156  CA         4.7580   49.8310   20.3580 C.3   153  ILE153      0.1727
    157  C          3.9530   48.5390   20.4060 C.2   153  ILE153      0.2616
    158  O          3.0460   48.3480   19.5810 O.2   153  ILE153     -0.2715
    159  CB         3.9050   51.0100   20.8940 C.3   153  ILE153      0.0290
    160  CG1        4.6500   52.3360   20.7540 C.3   153  ILE153      0.0022
    161  CG2        3.5300   50.7940   22.3680 C.3   153  ILE153      0.0023
    162  CD1        3.6940   53.5710   20.8300 C.3   153  ILE153      0.0001
    163  N          4.2890   47.6430   21.3310 N.am  154  HIS154     -0.1973
    164  CA         3.6080   46.3560   21.3970 C.3   154  HIS154      0.1656
    165  C          2.1830   46.4740   21.9650 C.2   154  HIS154      0.2291
    166  O          1.2240   45.9970   21.3550 O.2   154  HIS154     -0.2864
    167  CB         4.4140   45.3330   22.2010 C.3   154  HIS154      0.0771
    168  CG         3.9080   43.9390   22.0460 C.ar  154  HIS154      0.0820
    169  ND1        2.7640   43.4920   22.6700 N.ar  154  HIS154     -0.2267
    170  CD2        4.3630   42.9030   21.3020 C.ar  154  HIS154      0.1154
    171  CE1        2.5380   42.2390   22.3150 C.ar  154  HIS154      0.1986
    172  NE2        3.5010   41.8570   21.4930 N.ar  154  HIS154     -0.2212
    173  N          6.7510   33.3050   22.2610 N.3   163  LEU163     -0.1245
    174  CA         6.7320   31.9040   21.8300 C.3   163  LEU163      0.1561
    175  C          8.1330   31.3680   21.9320 C.2   163  LEU163      0.2260
    176  O          9.0970   32.1030   21.7140 O.2   163  LEU163     -0.2867
    177  CB         6.2390   31.7470   20.3800 C.3   163  LEU163      0.0270
    178  CG         4.8160   32.2170   20.0770 C.3   163  LEU163      0.0019
    179  CD1        4.5400   32.2910   18.5430 C.3   163  LEU163      0.0001
    180  CD2        3.8190   31.3180   20.7480 C.3   163  LEU163      0.0001
    181  N          8.8920   37.3280   20.2030 N.3   172  ILE172     -0.1231
    182  CA         7.8040   38.1890   20.5700 C.3   172  ILE172      0.1692
    183  C          6.7720   38.1330   19.4640 C.2   172  ILE172      0.2592
    184  O          7.1200   38.2300   18.2900 O.2   172  ILE172     -0.2718
    185  CB         8.2760   39.6360   20.6990 C.3   172  ILE172      0.0266
    186  CG1        9.3090   39.7730   21.8190 C.3   172  ILE172      0.0019
    187  CG2        7.0530   40.5630   20.9190 C.3   172  ILE172      0.0020
    188  CD1       10.0520   41.0970   21.7850 C.3   172  ILE172      0.0001
    189  N          5.5070   37.9970   19.8220 N.am  173  CYS173     -0.1956
    190  CA         4.4560   38.0660   18.8250 C.3   173  CYS173      0.1843
    191  C          3.2230   38.7620   19.3900 C.2   173  CYS173      0.2625
    192  O          3.1980   39.1880   20.5460 O.2   173  CYS173     -0.2714
    193  CB         4.1320   36.6610   18.2880 C.3   173  CYS173      0.0997
    194  SG         3.4850   35.5290   19.5030 S.3   173  CYS173     -0.0797
    195  N          2.2150   38.9070   18.5450 N.am  174  ASP174     -0.1957
    196  CA         0.9680   39.5200   18.9210 C.3   174  ASP174      0.1840
    197  C         -0.0420   38.7260   18.0950 C.2   174  ASP174      0.2622
    198  O         -0.2170   38.9610   16.8980 O.2   174  ASP174     -0.2715
    199  CB         0.9870   41.0170   18.5900 C.3   174  ASP174      0.1450
    200  CG        -0.2890   41.7410   19.0390 C.2   174  ASP174      0.3671
    201  OD1       -1.2830   41.0590   19.3650 O.co2 174  ASP174     -0.2456
    202  OD2       -0.2970   42.9930   19.0510 O.co2 174  ASP174     -0.2456
    203  N         -0.6490   37.7300   18.7300 N.am  175  PHE175     -0.1974
    204  CA        -1.5340   36.7910   18.0300 C.3   175  PHE175      0.1639
    205  C         -2.6950   37.4760   17.3440 C.2   175  PHE175      0.2290
    206  O         -3.1080   37.0810   16.2340 O.2   175  PHE175     -0.2864
    207  CB        -2.0960   35.7690   19.0120 C.3   175  PHE175      0.0560
    208  CG        -1.1210   34.7160   19.3940 C.ar  175  PHE175     -0.0200
    209  CD1       -1.1110   33.4980   18.7320 C.ar  175  PHE175     -0.0042
    210  CD2       -0.2260   34.9310   20.4140 C.ar  175  PHE175     -0.0042
    211  CE1       -0.2070   32.5130   19.0800 C.ar  175  PHE175     -0.0003
    212  CE2        0.6830   33.9530   20.7650 C.ar  175  PHE175     -0.0003
    213  CZ         0.6860   32.7370   20.0930 C.ar  175  PHE175     -0.0000
@<TRIPOS>BOND
     1    77    78    1
     2    78    79    1
     3    78    81    1
     4    83    81    1
     5    79    80    2
     6    81    82    1
     7    24    23    2
     8    39    40    1
     9    23    22    1
    10    49    50    2
    11    49    48    1
    12    32    33    2
    13    32    31    1
    14    30    31    1
    15    84    85    1
    16    40    41    1
    17    40    43    1
    18    21    22    1
    19    47    48    1
    20    47    41   am
    21    51    48    1
    22    51    52    1
    23    41    42    2
    24    31    34    1
    25    19    18    2
    26    22    25    1
    27    55    56    1
    28    85    86    1
    29    85    88    1
    30    18    17    1
    31    53    52    1
    32    34    35    1
    33    87    86    2
    34    25    26    1
    35    86    91   am
    36    57    58    2
    37    57    56    1
    38    44    43    1
    39    44    46    1
    40    43    45    1
    41    89    88    1
    42    52    54    1
    43    16    17    1
    44    56    59    1
    45    35    36    1
    46    26    27    1
    47    91    92    1
    48    88    90    1
    49    17    20    1
    50    92    95    1
    51    92    93    1
    52    37    36   ar
    53    59    60    1
    54    59    61    1
    55    36    38   ar
    56    27    28    1
    57    95    96    1
    58    28    29    1
    59    11    10    1
    60    11    12    2
    61    60    62    1
    62    10     9    1
    63    10    13    1
    64    93   100   am
    65    93    94    2
    66   100   101    1
    67    73    72    2
    68    14    13    1
    69    96    97    1
    70   104   101    1
    71   104   105    1
    72    72    71    1
    73    98    97   ar
    74    13    15    1
    75    97    99   ar
    76    76    74    1
    77   101   102    1
    78   105   106   ar
    79   105   107   ar
    80     7     6    1
    81   154   153    1
    82   106   108   ar
    83   103   102    2
    84   107   109   ar
    85    75    74    1
    86    71    74    1
    87    71    70    1
    88    66    65    2
    89   102   111   am
    90     6     5    1
    91     6     8    1
    92     1     2    1
    93    68    67    1
    94   108   110   ar
    95   109   110   ar
    96    65    70   am
    97    65    64    1
    98     5     2    1
    99    67    64    1
   100    67    69    1
   101   206   205    2
   102   111   112    1
   103     2     3    1
   104   153   150    1
   105   149   150    1
   106   148   146    1
   107    64    63    1
   108   198   197    2
   109   150   151    1
   110   144   143    2
   111   205   204    1
   112     3     4    2
   113   116   115    1
   114   112   115    1
   115   112   113    1
   116   124   125    1
   117   124   123    1
   118   142   143    1
   119   142   141    1
   120   142   145    1
   121   204   203    1
   122   204   207    1
   123   197   203   am
   124   197   196    1
   125   146   145    1
   126   146   147    1
   127   121   118    1
   128   121   122    1
   129   117   113   am
   130   117   118    1
   131   193   190    1
   132   193   194    1
   133   184   183    2
   134   113   114    2
   135   151   155   am
   136   151   152    2
   137   179   178    1
   138   195   196    1
   139   195   191   am
   140   199   196    1
   141   199   200    1
   142   118   119    1
   143   209   211   ar
   144   209   208   ar
   145   190   191    1
   146   190   189    1
   147   155   156    1
   148   122   123    1
   149   207   208    1
   150   200   202   ar
   151   200   201   ar
   152   211   213   ar
   153   191   192    2
   154   208   210   ar
   155   183   189   am
   156   183   182    1
   157   158   157    2
   158   178   177    1
   159   178   180    1
   160   213   212   ar
   161   119   120    2
   162   119   126   am
   163   181   182    1
   164   156   157    1
   165   156   159    1
   166   177   174    1
   167   157   163   am
   168   210   212   ar
   169   182   185    1
   170   185   187    1
   171   185   186    1
   172   160   162    1
   173   160   159    1
   174   159   161    1
   175   126   127    1
   176   170   172   ar
   177   170   168   ar
   178   163   164    1
   179   166   165    2
   180   164   165    1
   181   164   167    1
   182   172   171   ar
   183   176   175    2
   184   188   186    1
   185   174   175    1
   186   174   173    1
   187   137   138    1
   188   137   128   am
   189   168   167    1
   190   168   169   ar
   191   135   133   ar
   192   135   136   ar
   193   138   139    1
   194   171   169   ar
   195   133   131   ar
   196   127   128    1
   197   127   130    1
   198   136   134   ar
   199   128   129    2
   200   131   130    1
   201   131   132   ar
   202   139   140    2
   203   134   132   ar
