@<TRIPOS>MOLECULE
tmp/2ohfA00.pdb
 106 102 0 0 0
SMALL
GASTEIGER

@<TRIPOS>ATOM
      1  N         48.5450   43.4110   -5.3020 N.3    16  PRO16      -0.2102
      2  CA        49.7760   44.1300   -4.9990 C.3    16  PRO16       0.1504
      3  C         49.5310   45.4000   -4.1820 C.2    16  PRO16       0.2576
      4  O         48.4060   45.9190   -4.1370 O.2    16  PRO16      -0.2718
      5  CB        50.3250   44.4580   -6.3860 C.3    16  PRO16       0.0282
      6  CG        49.1010   44.5000   -7.2860 C.3    16  PRO16       0.0208
      7  CD        47.9260   43.9360   -6.5280 C.3    16  PRO16       0.0893
      8  N         50.6040   45.8960   -3.5690 N.am   17  ASN17      -0.1961
      9  CA        50.5220   46.9120   -2.5120 C.3    17  ASN17       0.1819
     10  C         49.5540   46.5270   -1.3880 C.2    17  ASN17       0.2621
     11  O         48.7060   47.3310   -0.9860 O.2    17  ASN17      -0.2715
     12  CB        50.1790   48.3010   -3.0830 C.3    17  ASN17       0.1195
     13  CG        51.4060   49.0520   -3.5820 C.2    17  ASN17       0.2630
     14  OD1       51.4000   49.6070   -4.6850 O.2    17  ASN17      -0.2716
     15  ND2       52.4640   49.0770   -2.7690 N.am   17  ASN17      -0.0877
     16  N         49.6860   45.2960   -0.8870 N.am   18  VAL18      -0.1963
     17  CA        48.8900   44.8530    0.2680 C.3    18  VAL18       0.1727
     18  C         49.7200   44.3830    1.4600 C.2    18  VAL18       0.2617
     19  O         49.1540   43.9020    2.4390 O.2    18  VAL18      -0.2715
     20  CB        47.8700   43.7550   -0.1080 C.3    18  VAL18       0.0290
     21  CG1       47.0080   44.2320   -1.2700 C.3    18  VAL18       0.0023
     22  CG2       48.5780   42.4120   -0.4210 C.3    18  VAL18       0.0023
     23  N         51.0440   44.5350    1.3910 N.am   19  GLY19      -0.1940
     24  CA        51.9290   44.1760    2.5070 C.3    19  GLY19       0.2014
     25  C         52.7470   42.9000    2.3480 C.2    19  GLY19       0.2639
     26  O         53.4010   42.4700    3.3030 O.2    19  GLY19      -0.2714
     27  N         52.7210   42.3020    1.1550 N.am   20  LYS20      -0.1963
     28  CA        53.3840   41.0200    0.9110 C.3    20  LYS20       0.1728
     29  C         54.8520   41.0780    1.2950 C.2    20  LYS20       0.2617
     30  O         55.3230   40.2460    2.0810 O.2    20  LYS20      -0.2715
     31  CB        53.2450   40.5820   -0.5580 C.3    20  LYS20       0.0311
     32  CG        51.8100   40.2540   -0.9840 C.3    20  LYS20       0.0038
     33  CD        51.6880   39.7230   -2.4260 C.3    20  LYS20       0.0206
     34  CE        52.3390   40.6260   -3.4850 C.3    20  LYS20       0.1093
     35  NZ        51.9670   42.0630   -3.3460 N.3    20  LYS20      -0.1314
     36  N         55.5560   42.0730    0.7580 N.am   21  SER21      -0.1936
     37  CA        56.9930   42.2400    0.9960 C.3    21  SER21       0.2055
     38  C         57.2580   42.4910    2.4890 C.2    21  SER21       0.2643
     39  O         58.1160   41.8440    3.1060 O.2    21  SER21      -0.2714
     40  CB        57.5650   43.3880    0.1420 C.3    21  SER21       0.2130
     41  OG        57.3390   43.1930   -1.2520 O.3    21  SER21      -0.2179
     42  N         56.5040   43.4150    3.0720 N.am   22  THR22      -0.1950
     43  CA        56.5950   43.6510    4.5050 C.3    22  THR22       0.1897
     44  C         56.3600   42.3220    5.2190 C.2    22  THR22       0.2313
     45  O         57.2060   41.8680    5.9870 O.2    22  THR22      -0.2863
     46  CB        55.5700   44.7130    5.0010 C.3    22  THR22       0.1794
     47  OG1       55.7390   45.9490    4.2820 O.3    22  THR22      -0.2208
     48  CG2       55.7520   44.9670    6.4890 C.3    22  THR22       0.0378
     49  N         44.0130   43.1140    2.6140 N.3    86  ARG86      -0.1231
     50  CA        44.2530   44.4820    3.1320 C.3    86  ARG86       0.1694
     51  C         43.0240   45.1560    3.7750 C.2    86  ARG86       0.2591
     52  O         41.8990   44.9930    3.2820 O.2    86  ARG86      -0.2718
     53  CB        44.7900   45.3780    2.0010 C.3    86  ARG86       0.0321
     54  CG        45.6730   46.5410    2.4760 C.3    86  ARG86       0.0489
     55  CD        45.9530   47.5780    1.3790 C.3    86  ARG86       0.2205
     56  NE        46.0510   48.9250    1.9460 N.pl3  86  ARG86      -0.0865
     57  CZ        46.0300   50.0580    1.2460 C.cat  86  ARG86       0.5346
     58  NH1       45.9350   50.0450   -0.0780 N.pl3  86  ARG86       0.1354
     59  NH2       46.1150   51.2210    1.8770 N.pl3  86  ARG86       0.1354
     60  N         43.2580   45.9200    4.8570 N.am   87  ALA87      -0.1980
     61  CA        42.1980   46.7120    5.5160 C.3    87  ALA87       0.1597
     62  C         42.6680   48.0300    6.1860 C.2    87  ALA87       0.2287
     63  O         43.8650   48.3340    6.2600 O.2    87  ALA87      -0.2864
     64  CB        41.4660   45.8420    6.5350 C.3    87  ALA87       0.0319
     65  N         45.6330   42.1460    6.7910 N.3   169  ASN169     -0.1225
     66  CA        46.6240   43.1770    7.1290 C.3   169  ASN169      0.1785
     67  C         45.9130   44.4670    7.5360 C.2   169  ASN169      0.2597
     68  O         44.9920   44.9220    6.8520 O.2   169  ASN169     -0.2718
     69  CB        47.6000   43.4370    5.9710 C.3   169  ASN169      0.1169
     70  CG        48.8670   44.1830    6.4180 C.2   169  ASN169      0.2627
     71  OD1       49.1460   44.3090    7.6080 O.2   169  ASN169     -0.2716
     72  ND2       49.6360   44.6680    5.4570 N.am  169  ASN169     -0.0877
     73  N         46.3560   45.0390    8.6510 N.am  170  LEU170     -0.1966
     74  CA        45.6230   46.0720    9.3640 C.3   170  LEU170      0.1728
     75  C         46.5700   47.1580    9.7980 C.2   170  LEU170      0.2617
     76  O         47.7870   46.9380    9.9190 O.2   170  LEU170     -0.2715
     77  CB        45.0160   45.5230   10.6530 C.3   170  LEU170      0.0311
     78  CG        43.8560   44.5360   10.6650 C.3   170  LEU170      0.0022
     79  CD1       43.4210   44.2930   12.1470 C.3   170  LEU170      0.0001
     80  CD2       42.6970   45.0340    9.8230 C.3   170  LEU170      0.0001
     81  N         45.9810   48.3270   10.0590 N.am  171  SER171     -0.1936
     82  CA        46.6500   49.4230   10.7500 C.3   171  SER171      0.2055
     83  C         46.9920   49.0210   12.1810 C.2   171  SER171      0.2642
     84  O         46.2370   48.2880   12.8300 O.2   171  SER171     -0.2714
     85  CB        45.7430   50.6530   10.7700 C.3   171  SER171      0.2130
     86  OG        44.4660   50.3330   11.3040 O.3   171  SER171     -0.2179
     87  N         48.1320   49.5070   12.6610 N.am  172  GLU172     -0.1976
     88  CA        48.5060   49.3890   14.0670 C.3   172  GLU172      0.1602
     89  C         47.2790   49.5260   14.9810 C.2   172  GLU172      0.2287
     90  O         47.0460   48.6950   15.8520 O.2   172  GLU172     -0.2864
     91  CB        49.5550   50.4590   14.3850 C.3   172  GLU172      0.0415
     92  CG        50.2560   50.3440   15.7340 C.3   172  GLU172      0.1163
     93  CD        51.6970   50.8920   15.7010 C.2   172  GLU172      0.3649
     94  OE1       51.9780   51.8550   14.9520 O.co2 172  GLU172     -0.2457
     95  OE2       52.5630   50.3530   16.4250 O.co2 172  GLU172     -0.2457
     96  N         49.1060   43.1790   11.8160 N.3   203  SER203     -0.1217
     97  CA        49.5610   44.4370   11.2330 C.3   203  SER203      0.1889
     98  C         51.0100   44.3770   10.8450 C.2   203  SER203      0.2288
     99  O         51.8820   44.2670   11.7030 O.2   203  SER203     -0.2866
    100  CB        49.4290   45.5900   12.2120 C.3   203  SER203      0.2089
    101  OG        50.3480   46.6230   11.8530 O.3   203  SER203     -0.2183
    102  N         52.8010   46.8370    9.6330 N.3   205  ALA205     -0.1245
    103  CA        53.4510   48.0050   10.1980 C.3   205  ALA205      0.1562
    104  C         53.8890   47.6250   11.5970 C.2   205  ALA205      0.2260
    105  O         55.0880   47.5000   11.8730 O.2   205  ALA205     -0.2867
    106  CB        52.4980   49.1970   10.2250 C.3   205  ALA205      0.0290
@<TRIPOS>BOND
     1     6     7    1
     2     6     5    1
     3     7     1    1
     4     5     2    1
     5     1     2    1
     6     2     3    1
     7    14    13    2
     8     3     4    2
     9     3     8   am
    10    13    12    1
    11    13    15   am
    12     8     9    1
    13    34    35    1
    14    34    33    1
    15    12     9    1
    16     9    10    1
    17    33    32    1
    18    10    11    2
    19    10    16   am
    20    21    20    1
    21    41    40    1
    22    32    31    1
    23    16    17    1
    24    31    28    1
    25    22    20    1
    26    20    17    1
    27    58    57    1
    28    40    37    1
    29    17    18    1
    30    36    37    1
    31    36    29   am
    32    28    27    1
    33    28    29    1
    34    37    38    1
    35    27    25   am
    36    57    59    1
    37    57    56    2
    38    29    30    2
    39    55    56    1
    40    55    54    1
    41    23    18   am
    42    23    24    1
    43    18    19    2
    44    53    54    1
    45    53    50    1
    46    25    24    1
    47    25    26    2
    48    38    42   am
    49    38    39    2
    50    49    50    1
    51    42    43    1
    52    50    51    1
    53    52    51    2
    54    51    60   am
    55    47    46    1
    56    43    46    1
    57    43    44    1
    58    60    61    1
    59    46    48    1
    60    44    45    2
    61    72    70   am
    62    61    62    1
    63    61    64    1
    64    69    70    1
    65    69    66    1
    66    62    63    2
    67    70    71    2
    68    65    66    1
    69    68    67    2
    70    66    67    1
    71    67    73   am
    72    73    74    1
    73    74    75    1
    74    74    77    1
    75   102   103    1
    76    75    76    2
    77    75    81   am
    78    80    78    1
    79    81    82    1
    80   103   106    1
    81   103   104    1
    82    77    78    1
    83    78    79    1
    84    82    85    1
    85    82    83    1
    86    85    86    1
    87    98    97    1
    88    98    99    2
    89    97    96    1
    90    97   100    1
    91   104   105    2
    92   101   100    1
    93    83    87   am
    94    83    84    2
    95    87    88    1
    96    88    91    1
    97    88    89    1
    98    91    92    1
    99    94    93   ar
   100    89    90    2
   101    93    92    1
   102    93    95   ar
