@<TRIPOS>MOLECULE
tmp/2ohiE00.pdb
 130 130 0 0 0
SMALL
GASTEIGER

@<TRIPOS>ATOM
      1  N         56.4150   33.0520   53.2840 N.3   265  THR265     -0.1203
      2  CA        57.7750   32.5910   53.4560 C.3   265  THR265      0.1994
      3  C         58.4830   33.2710   54.6390 C.2   265  THR265      0.2618
      4  O         58.1690   34.4220   55.0100 O.2   265  THR265     -0.2717
      5  CB        58.6230   32.8210   52.1760 C.3   265  THR265      0.1784
      6  OG1       59.9190   32.2310   52.3520 O.3   265  THR265     -0.2211
      7  CG2       58.7790   34.3160   51.8690 C.3   265  THR265      0.0376
      8  N         59.4610   32.5610   55.2010 N.am  266  MET266     -0.1965
      9  CA        60.3370   33.1330   56.2110 C.3   266  MET266      0.1736
     10  C         61.7120   33.4390   55.5980 C.2   266  MET266      0.2616
     11  O         62.1290   34.5890   55.5790 O.2   266  MET266     -0.2715
     12  CB        60.4460   32.1970   57.4240 C.3   266  MET266      0.0427
     13  CG        59.0890   31.7900   58.0280 C.3   266  MET266      0.0599
     14  SD        59.1890   30.8140   59.5510 S.3   266  MET266     -0.1393
     15  CE        59.8640   29.2610   58.9360 C.3   266  MET266      0.0692
     16  N         62.3970   32.4260   55.0700 N.am  267  HIS267     -0.1959
     17  CA        63.7590   32.6150   54.5410 C.3   267  HIS267      0.1787
     18  C         63.8510   32.6150   53.0080 C.2   267  HIS267      0.2621
     19  O         64.9490   32.6150   52.4640 O.2   267  HIS267     -0.2715
     20  CB        64.7470   31.5910   55.1400 C.3   267  HIS267      0.0785
     21  CG        64.8380   31.6420   56.6350 C.ar  267  HIS267      0.0821
     22  ND1       65.5630   32.6030   57.3070 N.ar  267  HIS267     -0.2267
     23  CD2       64.2840   30.8530   57.5880 C.ar  267  HIS267      0.1154
     24  CE1       65.4560   32.4020   58.6090 C.ar  267  HIS267      0.1986
     25  NE2       64.6900   31.3430   58.8050 N.ar  267  HIS267     -0.2212
     26  N         62.7100   32.6120   52.3250 N.am  268  GLY268     -0.1940
     27  CA        62.6910   32.8220   50.8840 C.3   268  GLY268      0.2014
     28  C         62.5660   31.6150   49.9660 C.2   268  GLY268      0.2640
     29  O         62.4290   31.7840   48.7490 O.2   268  GLY268     -0.2714
     30  N         62.6000   30.4030   50.5330 N.am  269  SER269     -0.1935
     31  CA        62.6170   29.1740   49.7320 C.3   269  SER269      0.2055
     32  C         61.2600   28.8650   49.1160 C.2   269  SER269      0.2643
     33  O         61.1830   28.3790   47.9900 O.2   269  SER269     -0.2714
     34  CB        63.1310   27.9810   50.5350 C.3   269  SER269      0.2130
     35  OG        64.5400   28.0000   50.6330 O.3   269  SER269     -0.2179
     36  N         60.1910   29.1510   49.8480 N.am  270  THR270     -0.1950
     37  CA        58.8480   28.9490   49.3010 C.3   270  THR270      0.1897
     38  C         58.5480   29.9900   48.2130 C.2   270  THR270      0.2313
     39  O         57.9250   29.6720   47.1910 O.2   270  THR270     -0.2863
     40  CB        57.7910   28.9200   50.4120 C.3   270  THR270      0.1794
     41  OG1       58.1780   27.9210   51.3550 O.3   270  THR270     -0.2208
     42  CG2       56.4410   28.5350   49.8520 C.3   270  THR270      0.0378
     43  N         55.9970   27.5510   54.4340 N.3   316  PRO316     -0.2102
     44  CA        56.9690   26.7090   55.1060 C.3   316  PRO316      0.1504
     45  C         56.3370   26.0340   56.3230 C.2   316  PRO316      0.2576
     46  O         55.2830   26.4630   56.8120 O.2   316  PRO316     -0.2718
     47  CB        58.0310   27.7100   55.5720 C.3   316  PRO316      0.0282
     48  CG        57.2550   28.9920   55.7780 C.3   316  PRO316      0.0208
     49  CD        56.2660   28.9860   54.6420 C.3   316  PRO316      0.0893
     50  N         56.9770   24.9880   56.8320 N.am  317  THR317     -0.1939
     51  CA        56.4330   24.3780   58.0300 C.3   317  THR317      0.2028
     52  C         57.1790   24.9230   59.2420 C.2   317  THR317      0.2642
     53  O         58.4170   25.0790   59.2290 O.2   317  THR317     -0.2714
     54  CB        56.2570   22.7960   57.9200 C.3   317  THR317      0.1808
     55  OG1       57.1780   22.0870   58.7470 O.3   317  THR317     -0.2208
     56  CG2       56.3930   22.3200   56.4910 C.3   317  THR317      0.0379
     57  N         56.3890   25.3090   60.2390 N.am  318  ILE318     -0.1963
     58  CA        56.8720   25.7570   61.5530 C.3   318  ILE318      0.1727
     59  C         56.3520   24.7430   62.5580 C.2   318  ILE318      0.2616
     60  O         55.1570   24.4910   62.6120 O.2   318  ILE318     -0.2715
     61  CB        56.3160   27.1550   61.9130 C.3   318  ILE318      0.0290
     62  CG1       57.0400   28.2440   61.1290 C.3   318  ILE318      0.0022
     63  CG2       56.4590   27.4380   63.4130 C.3   318  ILE318      0.0023
     64  CD1       56.5990   29.6720   61.5400 C.3   318  ILE318      0.0001
     65  N         57.2470   24.1390   63.3270 N.am  319  TYR319     -0.1960
     66  CA        56.8610   23.1810   64.3660 C.3   319  TYR319      0.1771
     67  C         55.6720   22.3180   63.9240 C.2   319  TYR319      0.2619
     68  O         54.6670   22.2530   64.6310 O.2   319  TYR319     -0.2715
     69  CB        56.5520   23.9110   65.6900 C.3   319  TYR319      0.0574
     70  CG        57.7230   24.7130   66.2540 C.ar  319  TYR319     -0.0198
     71  CD1       58.9670   24.1090   66.4650 C.ar  319  TYR319     -0.0009
     72  CD2       57.5780   26.0700   66.5910 C.ar  319  TYR319     -0.0009
     73  CE1       60.0410   24.8270   66.9750 C.ar  319  TYR319      0.0417
     74  CE2       58.6500   26.8050   67.1100 C.ar  319  TYR319      0.0417
     75  CZ        59.8860   26.1770   67.2970 C.ar  319  TYR319      0.1957
     76  OH        60.9760   26.8650   67.8200 O.3   319  TYR319     -0.2866
     77  N         55.7970   21.6990   62.7390 N.am  320  ASP320     -0.1971
     78  CA        54.8080   20.7480   62.1690 C.3   320  ASP320      0.1709
     79  C         53.5000   21.3160   61.6330 C.2   320  ASP320      0.2293
     80  O         52.5740   20.5490   61.3920 O.2   320  ASP320     -0.2864
     81  CB        54.4580   19.6330   63.1610 C.3   320  ASP320      0.1436
     82  CG        55.6100   18.7030   63.4340 C.2   320  ASP320      0.3671
     83  OD1       56.4210   18.3990   62.5180 O.co2 320  ASP320     -0.2456
     84  OD2       55.6850   18.2500   64.5870 O.co2 320  ASP320     -0.2456
     85  N         58.5190   24.7600   51.3920 N.3   351  SER351     -0.1202
     86  CA        59.7730   24.2140   51.8630 C.3   351  SER351      0.2020
     87  C         59.6620   23.7770   53.3330 C.2   351  SER351      0.2619
     88  O         58.7950   24.2600   54.0750 O.2   351  SER351     -0.2717
     89  CB        60.8780   25.2380   51.6800 C.3   351  SER351      0.2103
     90  OG        62.0580   24.7460   52.2650 O.3   351  SER351     -0.2182
     91  N         60.5440   22.8690   53.7460 N.am  352  MET352     -0.1965
     92  CA        60.5760   22.3760   55.1200 C.3   352  MET352      0.1736
     93  C         61.9720   21.9340   55.5410 C.2   352  MET352      0.2617
     94  O         62.8430   21.7280   54.7050 O.2   352  MET352     -0.2715
     95  CB        59.5680   21.2460   55.3030 C.3   352  MET352      0.0427
     96  CG        59.6070   20.1660   54.2310 C.3   352  MET352      0.0599
     97  SD        60.8420   18.9520   54.6480 S.3   352  MET352     -0.1393
     98  CE        60.3590   17.6060   53.5640 C.3   352  MET352      0.0692
     99  N         62.1820   21.7800   56.8410 N.am  353  GLY353     -0.1940
    100  CA        63.5150   21.4820   57.3470 C.3   353  GLY353      0.2014
    101  C         63.6920   20.0920   57.9210 C.2   353  GLY353      0.2639
    102  O         64.7840   19.5550   57.8980 O.2   353  GLY353     -0.2714
    103  N         62.6110   19.5140   58.4330 N.am  354  GLY354     -0.1939
    104  CA        62.6630   18.2150   59.0990 C.3   354  GLY354      0.2014
    105  C         61.6300   17.2600   58.5580 C.2   354  GLY354      0.2639
    106  O         61.6790   16.8720   57.3930 O.2   354  GLY354     -0.2714
    107  N         60.6900   16.8770   59.4080 N.am  355  ASN355     -0.1958
    108  CA        59.5950   16.0120   58.9920 C.3   355  ASN355      0.1819
    109  C         58.6520   16.6120   57.9320 C.2   355  ASN355      0.2621
    110  O         58.0800   15.8670   57.1240 O.2   355  ASN355     -0.2715
    111  CB        58.7840   15.5700   60.2060 C.3   355  ASN355      0.1195
    112  CG        59.4030   14.4050   60.9310 C.2   355  ASN355      0.2630
    113  OD1       58.8090   13.8630   61.8610 O.2   355  ASN355     -0.2716
    114  ND2       60.5990   14.0050   60.5140 N.am  355  ASN355     -0.0877
    115  N         58.5010   17.9390   57.9370 N.am  356  GLY356     -0.1954
    116  CA        57.5120   18.6090   57.0910 C.3   356  GLY356      0.1869
    117  C         56.1750   18.7420   57.8020 C.2   356  GLY356      0.2309
    118  O         56.1320   18.7140   59.0280 O.2   356  GLY356     -0.2863
    119  N         64.7250   22.5470   52.5540 N.3   381  TYR381     -0.1241
    120  CA        65.3740   23.8650   52.5090 C.3   381  TYR381      0.1605
    121  C         65.3240   24.5670   51.1520 C.2   381  TYR381      0.2264
    122  O         64.2540   24.8010   50.6110 O.2   381  TYR381     -0.2867
    123  CB        66.8130   23.7940   53.0400 C.3   381  TYR381      0.0534
    124  CG        66.8990   23.4640   54.5060 C.ar  381  TYR381     -0.0201
    125  CD1       66.1690   24.1950   55.4540 C.ar  381  TYR381     -0.0009
    126  CD2       67.7180   22.4340   54.9550 C.ar  381  TYR381     -0.0009
    127  CE1       66.2460   23.8970   56.8110 C.ar  381  TYR381      0.0417
    128  CE2       67.8070   22.1340   56.3080 C.ar  381  TYR381      0.0417
    129  CZ        67.0690   22.8700   57.2260 C.ar  381  TYR381      0.1957
    130  OH        67.1540   22.5650   58.5530 O.3   381  TYR381     -0.2866
@<TRIPOS>BOND
     1    39    38    2
     2    33    32    2
     3    38    37    1
     4    29    28    2
     5    32    31    1
     6    32    36   am
     7    37    36    1
     8    37    40    1
     9    31    30    1
    10    31    34    1
    11    42    40    1
    12    28    30   am
    13    28    27    1
    14    40    41    1
    15    34    35    1
    16   122   121    2
    17    27    26    1
    18   121   120    1
    19    85    86    1
    20    89    86    1
    21    89    90    1
    22    86    87    1
    23     7     5    1
    24     5     6    1
    25     5     2    1
    26    26    18   am
    27    19    18    2
    28   120   119    1
    29   120   123    1
    30    18    17    1
    31   123   124    1
    32     1     2    1
    33    87    91   am
    34    87    88    2
    35     2     3    1
    36    98    97    1
    37    91    92    1
    38    96    97    1
    39    96    95    1
    40    43    49    1
    41    43    44    1
    42   124   126   ar
    43   124   125   ar
    44    17    16    1
    45    17    20    1
    46     3     4    2
    47     3     8   am
    48    49    48    1
    49    94    93    2
    50   126   128   ar
    51    16    10   am
    52    44    47    1
    53    44    45    1
    54    92    95    1
    55    92    93    1
    56    20    21    1
    57     8     9    1
    58   125   127   ar
    59    93    99   am
    60    47    48    1
    61    11    10    2
    62    10     9    1
    63     9    12    1
    64   128   129   ar
    65    45    46    2
    66    45    50   am
    67    56    54    1
    68    21    22   ar
    69    21    23   ar
    70   127   129   ar
    71    50    51    1
    72    99   100    1
    73   116   117    1
    74   116   115    1
    75   110   109    2
    76   129   130    1
    77    22    24   ar
    78   100   101    1
    79   106   105    2
    80    12    13    1
    81    23    25   ar
    82   117   118    2
    83   102   101    2
    84    54    51    1
    85    54    55    1
    86   101   103   am
    87   109   115   am
    88   109   108    1
    89    13    14    1
    90    51    52    1
    91   103   104    1
    92   105   104    1
    93   105   107   am
    94    24    25   ar
    95    15    14    1
    96   108   107    1
    97   108   111    1
    98    53    52    2
    99    52    57   am
   100   111   112    1
   101    57    58    1
   102   114   112   am
   103   112   113    2
   104    62    64    1
   105    62    61    1
   106    80    79    2
   107    58    61    1
   108    58    59    1
   109    79    78    1
   110    61    63    1
   111    78    77    1
   112    78    81    1
   113    83    82   ar
   114    59    60    2
   115    59    65   am
   116    77    67   am
   117    81    82    1
   118    65    66    1
   119    82    84   ar
   120    67    66    1
   121    67    68    2
   122    66    69    1
   123    69    70    1
   124    70    71   ar
   125    70    72   ar
   126    71    73   ar
   127    72    74   ar
   128    73    75   ar
   129    74    75   ar
   130    75    76    1
