@<TRIPOS>MOLECULE
tmp/2ohkA00.pdb
 94 87 0 0 0
SMALL
GASTEIGER

@<TRIPOS>ATOM
      1  N         73.7980   55.8330    1.7540 N.3    32  LEU32      -0.1245
      2  CA        73.0660   54.5960    1.5650 C.3    32  LEU32       0.1561
      3  C         71.5830   54.8750    1.2680 C.2    32  LEU32       0.2260
      4  O         70.9350   55.6120    1.9850 O.2    32  LEU32      -0.2867
      5  CB        73.1880   53.7610    2.8260 C.3    32  LEU32       0.0270
      6  CG        72.9500   52.2790    2.7260 C.3    32  LEU32       0.0019
      7  CD1       74.2580   51.5910    2.2880 C.3    32  LEU32       0.0001
      8  CD2       72.4870   51.7630    4.1020 C.3    32  LEU32       0.0001
      9  N         67.9290   53.6900    1.3600 N.3    34  ASP34      -0.1239
     10  CA        67.2000   52.7860    2.2610 C.3    34  ASP34       0.1674
     11  C         65.6770   52.9830    2.2420 C.2    34  ASP34       0.2266
     12  O         65.1400   53.8980    2.9170 O.2    34  ASP34      -0.2867
     13  CB        67.7320   52.9620    3.7080 C.3    34  ASP34       0.1410
     14  CG        67.2280   51.8840    4.6420 C.2    34  ASP34       0.3668
     15  OD1       66.8430   50.8280    4.1350 O.co2  34  ASP34      -0.2456
     16  OD2       67.1840   52.0860    5.8660 O.co2  34  ASP34      -0.2456
     17  N         63.7650   51.0820    3.6800 N.3    36  GLY36      -0.1210
     18  CA        63.3620   50.3950    4.9150 C.3    36  GLY36       0.1956
     19  C         63.3880   51.2390    6.1710 C.2    36  GLY36       0.2612
     20  O         63.1540   50.7350    7.2690 O.2    36  GLY36      -0.2717
     21  N         63.6190   52.5340    6.0100 N.am   37  SER37      -0.1952
     22  CA        63.6710   53.4510    7.1260 C.3    37  SER37       0.1924
     23  C         63.3790   54.8670    6.5850 C.2    37  SER37       0.2314
     24  O         63.2680   55.0680    5.3660 O.2    37  SER37      -0.2863
     25  CB        65.0580   53.3750    7.8120 C.3    37  SER37       0.2116
     26  OG        66.1000   53.8720    6.9650 O.3    37  SER37      -0.2180
     27  N         68.8330   49.4460   16.4980 N.3    73  TYR73      -0.1227
     28  CA        68.3240   48.3520   15.7000 C.3    73  TYR73       0.1736
     29  C         68.6800   47.0500   16.4140 C.2    73  TYR73       0.2596
     30  O         69.2930   47.0590   17.4840 O.2    73  TYR73      -0.2718
     31  CB        68.9960   48.3000   14.3390 C.3    73  TYR73       0.0548
     32  CG        69.1310   49.5740   13.5620 C.ar   73  TYR73      -0.0200
     33  CD1       70.3710   50.1920   13.4260 C.ar   73  TYR73      -0.0009
     34  CD2       68.0390   50.1250   12.8950 C.ar   73  TYR73      -0.0009
     35  CE1       70.5100   51.3420   12.6730 C.ar   73  TYR73       0.0417
     36  CE2       68.1660   51.2890   12.1500 C.ar   73  TYR73       0.0417
     37  CZ        69.4040   51.8890   12.0390 C.ar   73  TYR73       0.1957
     38  OH        69.5480   53.0320   11.2930 O.3    73  TYR73      -0.2866
     39  N         68.3080   45.9370   15.7880 N.am   74  THR74      -0.1953
     40  CA        68.7610   44.6150   16.1930 C.3    74  THR74       0.1897
     41  C         70.2950   44.5520   16.1800 C.2    74  THR74       0.2313
     42  O         70.9290   44.4790   15.1210 O.2    74  THR74      -0.2863
     43  CB        68.1630   43.5330   15.2710 C.3    74  THR74       0.1794
     44  OG1       68.1080   44.0320   13.9250 O.3    74  THR74      -0.2208
     45  CG2       66.7460   43.1690   15.7300 C.3    74  THR74       0.0378
     46  N         77.1690   50.0900   12.9610 N.3   110  PHE110     -0.1241
     47  CA        76.3810   50.7670   11.9470 C.3   110  PHE110      0.1605
     48  C         77.2190   50.9580   10.6920 C.2   110  PHE110      0.2264
     49  O         76.9740   50.3170    9.6750 O.2   110  PHE110     -0.2867
     50  CB        75.8850   52.1100   12.4980 C.3   110  PHE110      0.0534
     51  CG        75.0940   52.8990   11.5110 C.ar  110  PHE110     -0.0203
     52  CD1       73.8840   52.4080   11.0330 C.ar  110  PHE110     -0.0042
     53  CD2       75.5620   54.1080   11.0350 C.ar  110  PHE110     -0.0042
     54  CE1       73.1640   53.1070   10.1090 C.ar  110  PHE110     -0.0003
     55  CE2       74.8270   54.8290   10.1270 C.ar  110  PHE110     -0.0003
     56  CZ        73.6220   54.3270    9.6580 C.ar  110  PHE110     -0.0000
     57  N         72.9290   57.5970    5.6830 N.3   120  ILE120     -0.1245
     58  CA        71.7950   56.7720    5.2940 C.3   120  ILE120      0.1561
     59  C         70.6560   57.6960    4.9050 C.2   120  ILE120      0.2260
     60  O         70.4130   58.6790    5.5860 O.2   120  ILE120     -0.2867
     61  CB        71.3950   55.8080    6.4030 C.3   120  ILE120      0.0252
     62  CG1       70.2220   54.9180    5.9640 C.3   120  ILE120      0.0019
     63  CG2       71.0620   56.5420    7.7240 C.3   120  ILE120      0.0019
     64  CD1       70.0700   53.6710    6.8160 C.3   120  ILE120      0.0001
     65  N         62.4960   46.6220    0.8240 N.3   220  ASP220     -0.1239
     66  CA        63.6050   47.2550    1.5620 C.3   220  ASP220      0.1674
     67  C         64.9360   47.1640    0.8320 C.2   220  ASP220      0.2266
     68  O         65.5440   46.0930    0.7600 O.2   220  ASP220     -0.2867
     69  CB        63.7650   46.5710    2.9140 C.3   220  ASP220      0.1410
     70  CG        64.7720   47.2760    3.8150 C.2   220  ASP220      0.3668
     71  OD1       65.2720   48.3640    3.4520 O.co2 220  ASP220     -0.2456
     72  OD2       65.0320   46.7450    4.9020 O.co2 220  ASP220     -0.2456
     73  N         67.6790   48.3550    1.8140 N.3   222  GLY222     -0.1210
     74  CA        68.7590   48.2770    2.8030 C.3   222  GLY222      0.1956
     75  C         68.9520   46.8940    3.4250 C.2   222  GLY222      0.2612
     76  O         69.6870   46.7580    4.4020 O.2   222  GLY222     -0.2717
     77  N         68.2760   45.8860    2.8690 N.am  223  THR223     -0.1952
     78  CA        68.3850   44.4910    3.2950 C.3   223  THR223      0.1897
     79  C         68.8360   43.7230    2.0860 C.2   223  THR223      0.2313
     80  O         68.3350   43.9440    0.9970 O.2   223  THR223     -0.2863
     81  CB        67.0300   43.9250    3.7440 C.3   223  THR223      0.1794
     82  OG1       66.6100   44.5680    4.9470 O.3   223  THR223     -0.2208
     83  CG2       67.0890   42.4020    3.9570 C.3   223  THR223      0.0378
     84  N         63.8610   37.7730    3.1330 N.3   227  ARG227     -0.1245
     85  CA        63.5980   37.2570    4.4500 C.3   227  ARG227      0.1563
     86  C         62.1200   36.8280    4.5060 C.2   227  ARG227      0.2260
     87  O         61.2610   37.5710    4.0400 O.2   227  ARG227     -0.2867
     88  CB        63.8720   38.3270    5.5070 C.3   227  ARG227      0.0307
     89  CG        65.3190   38.8710    5.5460 C.3   227  ARG227      0.0489
     90  CD        65.5020   39.9450    6.6700 C.3   227  ARG227      0.2205
     91  NE        65.2860   39.4270    8.0170 N.pl3 227  ARG227     -0.0865
     92  CZ        65.1100   40.1630    9.1200 C.cat 227  ARG227      0.5346
     93  NH1       65.1160   41.4870    9.0800 N.pl3 227  ARG227      0.1354
     94  NH2       64.9090   39.5560   10.2990 N.pl3 227  ARG227      0.1354
@<TRIPOS>BOND
     1    68    67    2
     2    65    66    1
     3    67    66    1
     4    80    79    2
     5     3     2    1
     6     3     4    2
     7     9    10    1
     8    66    69    1
     9     2     1    1
    10     2     5    1
    11    73    74    1
    12    79    78    1
    13    11    10    1
    14    11    12    2
    15    10    13    1
    16     7     6    1
    17     6     5    1
    18     6     8    1
    19    74    75    1
    20    77    78    1
    21    77    75   am
    22    69    70    1
    23    84    85    1
    24    78    81    1
    25    75    76    2
    26    71    70   ar
    27    17    18    1
    28    13    14    1
    29    81    83    1
    30    81    82    1
    31    70    72   ar
    32    87    86    2
    33    15    14   ar
    34    85    86    1
    35    85    88    1
    36    14    16   ar
    37    59    58    1
    38    59    60    2
    39    18    19    1
    40    58    57    1
    41    58    61    1
    42    24    23    2
    43    88    89    1
    44    89    90    1
    45    62    61    1
    46    62    64    1
    47    21    19   am
    48    21    22    1
    49    19    20    2
    50    61    63    1
    51    23    22    1
    52    90    91    1
    53    26    25    1
    54    22    25    1
    55    91    92    2
    56    93    92    1
    57    92    94    1
    58    56    54   ar
    59    56    55   ar
    60    49    48    2
    61    54    52   ar
    62    55    53   ar
    63    48    47    1
    64    52    51   ar
    65    53    51   ar
    66    38    37    1
    67    51    50    1
    68    47    50    1
    69    47    46    1
    70    37    36   ar
    71    37    35   ar
    72    36    34   ar
    73    35    33   ar
    74    34    32   ar
    75    33    32   ar
    76    32    31    1
    77    44    43    1
    78    31    28    1
    79    42    41    2
    80    43    45    1
    81    43    40    1
    82    28    29    1
    83    28    27    1
    84    39    40    1
    85    39    29   am
    86    41    40    1
    87    29    30    2
