@<TRIPOS>MOLECULE
tmp/2ohlA00.pdb
 97 91 0 0 0
SMALL
GASTEIGER

@<TRIPOS>ATOM
      1  N         67.7720   53.6640    1.5580 N.3    34  ASP34      -0.1239
      2  CA        67.1160   52.7090    2.4230 C.3    34  ASP34       0.1674
      3  C         65.6130   52.9230    2.5180 C.2    34  ASP34       0.2266
      4  O         65.1580   53.7330    3.3310 O.2    34  ASP34      -0.2867
      5  CB        67.7330   52.7580    3.8180 C.3    34  ASP34       0.1410
      6  CG        67.1120   51.7460    4.7370 C.2    34  ASP34       0.3668
      7  OD1       66.6290   50.7270    4.2000 O.co2  34  ASP34      -0.2456
      8  OD2       67.0590   51.9760    5.9630 O.co2  34  ASP34      -0.2456
      9  N         63.6110   50.9550    3.8010 N.3    36  GLY36      -0.1210
     10  CA        63.1420   50.3330    5.0630 C.3    36  GLY36       0.1956
     11  C         63.2220   51.1740    6.3460 C.2    36  GLY36       0.2612
     12  O         63.0080   50.6510    7.4660 O.2    36  GLY36      -0.2717
     13  N         63.4990   52.4640    6.1930 N.am   37  SER37      -0.1952
     14  CA        63.5830   53.4050    7.3180 C.3    37  SER37       0.1924
     15  C         63.2620   54.8260    6.8450 C.2    37  SER37       0.2314
     16  O         63.0750   55.0680    5.6490 O.2    37  SER37      -0.2863
     17  CB        64.9880   53.3360    7.9650 C.3    37  SER37       0.2116
     18  OG        65.9980   53.9500    7.1690 O.3    37  SER37      -0.2180
     19  N         68.5830   55.7950   18.1750 N.3    71  VAL71      -0.1245
     20  CA        67.9600   54.7250   17.3580 C.3    71  VAL71       0.1561
     21  C         68.5830   53.3300   17.5850 C.2    71  VAL71       0.2260
     22  O         69.5720   52.9840   16.9570 O.2    71  VAL71      -0.2867
     23  CB        68.0050   55.0780   15.8350 C.3    71  VAL71       0.0252
     24  CG1       67.4110   53.9350   14.9900 C.3    71  VAL71       0.0019
     25  CG2       67.3060   56.4380   15.5650 C.3    71  VAL71       0.0019
     26  N         68.5740   49.1470   17.3460 N.3    73  TYR73      -0.1241
     27  CA        68.1250   48.1110   16.4320 C.3    73  TYR73       0.1605
     28  C         68.8660   46.8130   16.8270 C.2    73  TYR73       0.2264
     29  O         69.7370   46.8570   17.6940 O.2    73  TYR73      -0.2867
     30  CB        68.3910   48.5430   14.9790 C.3    73  TYR73       0.0534
     31  CG        69.8310   48.9200   14.6620 C.ar   73  TYR73      -0.0201
     32  CD1       70.7650   47.9480   14.3230 C.ar   73  TYR73      -0.0009
     33  CD2       70.2550   50.2570   14.6810 C.ar   73  TYR73      -0.0009
     34  CE1       72.0850   48.2890   14.0150 C.ar   73  TYR73       0.0417
     35  CE2       71.5710   50.6110   14.3700 C.ar   73  TYR73       0.0417
     36  CZ        72.4830   49.6220   14.0450 C.ar   73  TYR73       0.1957
     37  OH        73.7910   49.9420   13.7360 O.3    73  TYR73      -0.2866
     38  N         72.5950   53.7400   16.5020 N.3    78  TRP78      -0.1241
     39  CA        73.2080   55.0230   16.2010 C.3    78  TRP78       0.1605
     40  C         72.4340   56.0380   17.0000 C.2    78  TRP78       0.2264
     41  O         71.3190   55.7760   17.4680 O.2    78  TRP78      -0.2867
     42  CB        73.2120   55.3740   14.6910 C.3    78  TRP78       0.0550
     43  CG        71.8490   55.6080   14.0440 C.ar   78  TRP78       0.0003
     44  CD1       71.1070   54.6970   13.3550 C.ar   78  TRP78       0.0946
     45  CD2       71.1020   56.8290   14.0130 C.ar   78  TRP78       0.0152
     46  NE1       69.9360   55.2630   12.9080 N.ar   78  TRP78      -0.2442
     47  CE2       69.9080   56.5730   13.3000 C.ar   78  TRP78       0.0810
     48  CE3       71.3170   58.1100   14.5290 C.ar   78  TRP78       0.0012
     49  CZ2       68.9350   57.5520   13.0940 C.ar   78  TRP78       0.0191
     50  CZ3       70.3590   59.0820   14.3190 C.ar   78  TRP78       0.0001
     51  CH2       69.1780   58.7980   13.6040 C.ar   78  TRP78       0.0015
     52  N         76.9810   50.0310   13.2160 N.3   110  PHE110     -0.1241
     53  CA        76.2300   50.7410   12.1770 C.3   110  PHE110      0.1605
     54  C         77.0990   50.8800   10.9310 C.2   110  PHE110      0.2264
     55  O         76.8540   50.2580    9.9050 O.2   110  PHE110     -0.2867
     56  CB        75.8060   52.1120   12.6940 C.3   110  PHE110      0.0534
     57  CG        74.9810   52.9160   11.7200 C.ar  110  PHE110     -0.0203
     58  CD1       73.6800   52.5310   11.4040 C.ar  110  PHE110     -0.0042
     59  CD2       75.4780   54.0870   11.1730 C.ar  110  PHE110     -0.0042
     60  CE1       72.9010   53.2750   10.5430 C.ar  110  PHE110     -0.0003
     61  CE2       74.7120   54.8300   10.3070 C.ar  110  PHE110     -0.0003
     62  CZ        73.4150   54.4210    9.9870 C.ar  110  PHE110     -0.0000
     63  N         72.7190   57.3740    5.8830 N.3   120  ILE120     -0.1245
     64  CA        71.5870   56.5420    5.5010 C.3   120  ILE120      0.1561
     65  C         70.4710   57.4850    5.1060 C.2   120  ILE120      0.2260
     66  O         70.2520   58.4960    5.7710 O.2   120  ILE120     -0.2867
     67  CB        71.2050   55.6210    6.6590 C.3   120  ILE120      0.0252
     68  CG1       70.1560   54.6030    6.2520 C.3   120  ILE120      0.0019
     69  CG2       70.7100   56.4090    7.8870 C.3   120  ILE120      0.0019
     70  CD1       69.9030   53.5840    7.3570 C.3   120  ILE120      0.0001
     71  N         57.2970   43.8140    3.5860 N.3   218  ILE218     -0.1245
     72  CA        57.8140   45.0880    3.1110 C.3   218  ILE218      0.1561
     73  C         58.8360   44.9550    1.9890 C.2   218  ILE218      0.2260
     74  O         59.4350   43.8870    1.7640 O.2   218  ILE218     -0.2867
     75  CB        58.3860   45.9420    4.2470 C.3   218  ILE218      0.0252
     76  CG1       59.6090   45.2660    4.8980 C.3   218  ILE218      0.0019
     77  CG2       57.2970   46.2570    5.2830 C.3   218  ILE218      0.0019
     78  CD1       60.4290   46.2160    5.8280 C.3   218  ILE218      0.0001
     79  N         62.2860   46.5690    0.8430 N.3   220  ASP220     -0.1239
     80  CA        63.3570   47.1890    1.5930 C.3   220  ASP220      0.1674
     81  C         64.7400   47.0620    0.9650 C.2   220  ASP220      0.2266
     82  O         65.4080   46.0460    1.1160 O.2   220  ASP220     -0.2867
     83  CB        63.3800   46.5690    2.9770 C.3   220  ASP220      0.1410
     84  CG        64.5370   47.0290    3.7650 C.2   220  ASP220      0.3668
     85  OD1       64.9010   48.2030    3.5570 O.co2 220  ASP220     -0.2456
     86  OD2       65.0870   46.2220    4.5550 O.co2 220  ASP220     -0.2456
     87  N         67.4180   48.1640    1.9850 N.3   222  GLY222     -0.1210
     88  CA        68.4760   48.1520    3.0110 C.3   222  GLY222      0.1956
     89  C         68.8930   46.7400    3.4250 C.2   222  GLY222      0.2612
     90  O         69.9970   46.5300    3.9470 O.2   222  GLY222     -0.2717
     91  N         68.0130   45.7730    3.1720 N.am  223  THR223     -0.1952
     92  CA        68.2220   44.3880    3.5370 C.3   223  THR223      0.1897
     93  C         68.6970   43.6800    2.3140 C.2   223  THR223      0.2313
     94  O         68.2860   44.0260    1.2280 O.2   223  THR223     -0.2863
     95  CB        66.9090   43.7510    3.9810 C.3   223  THR223      0.1794
     96  OG1       66.4550   44.3760    5.1920 O.3   223  THR223     -0.2208
     97  CG2       67.0620   42.2450    4.1800 C.3   223  THR223      0.0378
@<TRIPOS>BOND
     1    79    80    1
     2    81    82    2
     3    81    80    1
     4    94    93    2
     5     1     2    1
     6    80    83    1
     7    74    73    2
     8    87    88    1
     9    73    72    1
    10    93    92    1
    11     2     3    1
    12     2     5    1
    13     3     4    2
    14    83    84    1
    15    88    89    1
    16    72    71    1
    17    72    75    1
    18    91    89   am
    19    91    92    1
    20    89    90    2
    21    92    95    1
    22    85    84   ar
    23    84    86   ar
    24     9    10    1
    25     5     6    1
    26    95    97    1
    27    95    96    1
    28     7     6   ar
    29    75    76    1
    30    75    77    1
    31     6     8   ar
    32    76    78    1
    33    10    11    1
    34    65    64    1
    35    65    66    2
    36    64    63    1
    37    64    67    1
    38    16    15    2
    39    13    11   am
    40    13    14    1
    41    68    67    1
    42    68    70    1
    43    11    12    2
    44    67    69    1
    45    15    14    1
    46    18    17    1
    47    14    17    1
    48    55    54    2
    49    62    61   ar
    50    62    60   ar
    51    61    59   ar
    52    60    58   ar
    53    54    53    1
    54    59    57   ar
    55    58    57   ar
    56    57    56    1
    57    53    56    1
    58    53    52    1
    59    46    47   ar
    60    46    44   ar
    61    49    47   ar
    62    49    51   ar
    63    47    45   ar
    64    44    43   ar
    65    51    50   ar
    66    37    36    1
    67    45    43   ar
    68    45    48   ar
    69    34    36   ar
    70    34    32   ar
    71    43    42    1
    72    36    35   ar
    73    50    48   ar
    74    32    31   ar
    75    35    33   ar
    76    31    33   ar
    77    31    30    1
    78    42    39    1
    79    30    27    1
    80    24    23    1
    81    25    23    1
    82    23    20    1
    83    39    38    1
    84    39    40    1
    85    27    28    1
    86    27    26    1
    87    28    29    2
    88    22    21    2
    89    40    41    2
    90    20    21    1
    91    20    19    1
