@<TRIPOS>MOLECULE
tmp/2ohmA00.pdb
 118 111 0 0 0
SMALL
GASTEIGER

@<TRIPOS>ATOM
      1  N         73.1050   55.2580    1.9230 N.3    32  LEU32      -0.1245
      2  CA        72.4670   53.9890    1.6910 C.3    32  LEU32       0.1561
      3  C         71.0070   54.2020    1.3090 C.2    32  LEU32       0.2260
      4  O         70.2960   54.9250    2.0020 O.2    32  LEU32      -0.2867
      5  CB        72.5360   53.1340    2.9530 C.3    32  LEU32       0.0270
      6  CG        72.1890   51.6840    2.6220 C.3    32  LEU32       0.0019
      7  CD1       73.4630   51.0140    2.2150 C.3    32  LEU32       0.0001
      8  CD2       71.4870   50.9380    3.7770 C.3    32  LEU32       0.0001
      9  N         67.4090   53.0480    1.3710 N.3    34  ASP34      -0.1239
     10  CA        66.7100   52.0980    2.2630 C.3    34  ASP34       0.1674
     11  C         65.2060   52.3190    2.2940 C.2    34  ASP34       0.2266
     12  O         64.7160   53.2310    2.9850 O.2    34  ASP34      -0.2867
     13  CB        67.2660   52.2400    3.6850 C.3    34  ASP34       0.1410
     14  CG        66.6140   51.3050    4.6650 C.2    34  ASP34       0.3668
     15  OD1       66.0840   50.2890    4.2150 O.co2  34  ASP34      -0.2456
     16  OD2       66.6430   51.5850    5.8830 O.co2  34  ASP34      -0.2456
     17  N         63.1410   50.3970    3.7330 N.3    36  GLY36      -0.1210
     18  CA        62.6180   49.7970    4.9510 C.3    36  GLY36       0.1956
     19  C         62.6450   50.7130    6.1690 C.2    36  GLY36       0.2612
     20  O         62.4920   50.2680    7.3040 O.2    36  GLY36      -0.2717
     21  N         62.8550   51.9930    5.9520 N.am   37  SER37      -0.1952
     22  CA        62.9340   52.9330    7.0530 C.3    37  SER37       0.1924
     23  C         62.7430   54.3280    6.4630 C.2    37  SER37       0.2314
     24  O         62.7870   54.5050    5.2420 O.2    37  SER37      -0.2863
     25  CB        64.2850   52.8030    7.7920 C.3    37  SER37       0.2116
     26  OG        65.3380   53.5420    7.1550 O.3    37  SER37      -0.2180
     27  N         68.1890   48.4990   17.0420 N.3    73  TYR73      -0.1241
     28  CA        67.8780   47.3940   16.1430 C.3    73  TYR73       0.1605
     29  C         68.1180   46.0940   16.9370 C.2    73  TYR73       0.2264
     30  O         67.8900   46.0590   18.1490 O.2    73  TYR73      -0.2867
     31  CB        68.7500   47.4890   14.8700 C.3    73  TYR73       0.0534
     32  CG        68.5180   48.7300   14.0030 C.ar   73  TYR73      -0.0201
     33  CD1       69.4760   49.7450   13.9140 C.ar   73  TYR73      -0.0009
     34  CD2       67.3420   48.8750   13.2590 C.ar   73  TYR73      -0.0009
     35  CE1       69.2540   50.8800   13.1030 C.ar   73  TYR73       0.0417
     36  CE2       67.1140   50.0030   12.4540 C.ar   73  TYR73       0.0417
     37  CZ        68.0670   51.0010   12.3760 C.ar   73  TYR73       0.1957
     38  OH        67.8270   52.1010   11.5650 O.3    73  TYR73      -0.2866
     39  N         77.0660   48.6680   15.6270 N.3   109  LYS109     -0.1231
     40  CA        76.7880   47.6960   14.5540 C.3   109  LYS109      0.1693
     41  C         75.9780   48.3250   13.4120 C.2   109  LYS109      0.2592
     42  O         75.2430   47.6480   12.6820 O.2   109  LYS109     -0.2718
     43  CB        76.1420   46.4140   15.1320 C.3   109  LYS109      0.0285
     44  CG        77.1320   45.5800   15.9610 C.3   109  LYS109      0.0035
     45  CD        76.4640   44.7280   17.0580 C.3   109  LYS109      0.0206
     46  CE        77.4810   44.2890   18.1720 C.3   109  LYS109      0.1093
     47  NZ        78.3200   43.0720   17.8600 N.3   109  LYS109     -0.1314
     48  N         76.1410   49.6290   13.2440 N.am  110  PHE110     -0.1976
     49  CA        75.4110   50.3320   12.2370 C.3   110  PHE110      0.1639
     50  C         76.2870   50.4220   11.0100 C.2   110  PHE110      0.2290
     51  O         75.9340   49.9150    9.9450 O.2   110  PHE110     -0.2864
     52  CB        75.0260   51.7100   12.7240 C.3   110  PHE110      0.0560
     53  CG        74.2490   52.4960   11.7200 C.ar  110  PHE110     -0.0200
     54  CD1       72.9780   52.0970   11.3500 C.ar  110  PHE110     -0.0042
     55  CD2       74.7960   53.6360   11.1300 C.ar  110  PHE110     -0.0042
     56  CE1       72.2410   52.8370   10.4470 C.ar  110  PHE110     -0.0003
     57  CE2       74.0750   54.3700   10.2070 C.ar  110  PHE110     -0.0003
     58  CZ        72.7870   53.9690    9.8680 C.ar  110  PHE110     -0.0000
     59  N         79.4090   49.7290    8.5150 N.3   112  ILE112     -0.1245
     60  CA        80.0470   48.4910    8.1120 C.3   112  ILE112      0.1561
     61  C         81.5040   48.7980    7.8070 C.2   112  ILE112      0.2260
     62  O         81.8070   49.6720    6.9870 O.2   112  ILE112     -0.2867
     63  CB        79.3690   47.9130    6.8680 C.3   112  ILE112      0.0252
     64  CG1       77.9650   47.3870    7.2210 C.3   112  ILE112      0.0019
     65  CG2       80.2350   46.8460    6.2370 C.3   112  ILE112      0.0019
     66  CD1       77.1020   47.1110    5.9840 C.3   112  ILE112      0.0001
     67  N         79.7780   53.7870    2.3960 N.3   117  TRP117     -0.1241
     68  CA        78.7020   54.7430    2.6390 C.3   117  TRP117      0.1605
     69  C         78.8010   55.2540    4.0570 C.2   117  TRP117      0.2264
     70  O         79.3870   54.5930    4.9030 O.2   117  TRP117     -0.2867
     71  CB        77.3170   54.1590    2.3630 C.3   117  TRP117      0.0550
     72  CG        77.0220   52.8220    3.0250 C.ar  117  TRP117      0.0003
     73  CD1       77.1490   51.5980    2.4570 C.ar  117  TRP117      0.0946
     74  CD2       76.5040   52.5990    4.3470 C.ar  117  TRP117      0.0152
     75  NE1       76.7610   50.6210    3.3410 N.ar  117  TRP117     -0.2442
     76  CE2       76.3700   51.2070    4.5120 C.ar  117  TRP117      0.0810
     77  CE3       76.1660   53.4360    5.4120 C.ar  117  TRP117      0.0012
     78  CZ2       75.9120   50.6270    5.6980 C.ar  117  TRP117      0.0191
     79  CZ3       75.7080   52.8620    6.5930 C.ar  117  TRP117      0.0001
     80  CH2       75.5800   51.4690    6.7220 C.ar  117  TRP117      0.0015
     81  N         72.2880   56.9470    5.7870 N.3   120  ILE120     -0.1245
     82  CA        71.1400   56.1510    5.3650 C.3   120  ILE120      0.1561
     83  C         70.0540   57.1000    4.8840 C.2   120  ILE120      0.2260
     84  O         69.8790   58.1860    5.4600 O.2   120  ILE120     -0.2867
     85  CB        70.6360   55.2490    6.5220 C.3   120  ILE120      0.0252
     86  CG1       69.5850   54.2590    6.0180 C.3   120  ILE120      0.0019
     87  CG2       70.0770   56.0860    7.6960 C.3   120  ILE120      0.0019
     88  CD1       69.3040   53.1130    7.0240 C.3   120  ILE120      0.0001
     89  N         62.0920   45.9430    0.8590 N.3   220  ASP220     -0.1239
     90  CA        63.1880   46.4920    1.6810 C.3   220  ASP220      0.1674
     91  C         64.5490   46.3860    1.0280 C.2   220  ASP220      0.2266
     92  O         65.2570   45.3940    1.1880 O.2   220  ASP220     -0.2867
     93  CB        63.2270   45.7680    3.0130 C.3   220  ASP220      0.1410
     94  CG        64.2650   46.3240    3.9470 C.2   220  ASP220      0.3668
     95  OD1       64.7490   47.4590    3.7340 O.co2 220  ASP220     -0.2456
     96  OD2       64.5850   45.6030    4.9110 O.co2 220  ASP220     -0.2456
     97  N         67.0080   47.7310    2.0640 N.3   222  GLY222     -0.1210
     98  CA        67.9710   47.6590    3.1570 C.3   222  GLY222      0.1956
     99  C         68.4260   46.2730    3.5670 C.2   222  GLY222      0.2612
    100  O         69.4310   46.1620    4.2680 O.2   222  GLY222     -0.2717
    101  N         67.6980   45.2340    3.1290 N.am  223  THR223     -0.1952
    102  CA        67.9300   43.8270    3.5140 C.3   223  THR223      0.1897
    103  C         68.3840   43.0670    2.3040 C.2   223  THR223      0.2313
    104  O         67.8570   43.2730    1.2230 O.2   223  THR223     -0.2863
    105  CB        66.6190   43.1430    4.0070 C.3   223  THR223      0.1794
    106  OG1       66.2240   43.6730    5.2780 O.3   223  THR223     -0.2208
    107  CG2       66.7610   41.6210    4.1160 C.3   223  THR223      0.0378
    108  N         63.3140   37.1950    3.5000 N.3   227  ARG227     -0.1245
    109  CA        63.0340   36.7360    4.8380 C.3   227  ARG227      0.1563
    110  C         61.5460   36.3590    4.9550 C.2   227  ARG227      0.2260
    111  O         60.6830   37.2060    4.7310 O.2   227  ARG227     -0.2867
    112  CB        63.4100   37.8140    5.8610 C.3   227  ARG227      0.0307
    113  CG        64.8940   38.1250    5.9330 C.3   227  ARG227      0.0489
    114  CD        65.1830   39.1980    6.9890 C.3   227  ARG227      0.2205
    115  NE        65.0510   38.6650    8.3500 N.pl3 227  ARG227     -0.0865
    116  CZ        64.6480   39.3560    9.4260 C.cat 227  ARG227      0.5346
    117  NH1       64.3230   40.6400    9.3450 N.pl3 227  ARG227      0.1354
    118  NH2       64.5580   38.7450   10.6100 N.pl3 227  ARG227      0.1354
@<TRIPOS>BOND
     1    89    90    1
     2    91    92    2
     3    91    90    1
     4   104   103    2
     5     3     2    1
     6     3     4    2
     7     9    10    1
     8    90    93    1
     9     2     1    1
    10     2     5    1
    11    97    98    1
    12     7     6    1
    13    10    11    1
    14    10    13    1
    15    11    12    2
    16   103   102    1
    17    71    68    1
    18    71    72    1
    19    67    68    1
    20    73    72   ar
    21    73    75   ar
    22     6     5    1
    23     6     8    1
    24    68    69    1
    25    93    94    1
    26    72    74   ar
    27   101   102    1
    28   101    99   am
    29    98    99    1
    30    75    76   ar
    31   108   109    1
    32   102   105    1
    33    99   100    2
    34    13    14    1
    35    17    18    1
    36    95    94   ar
    37    94    96   ar
    38   105   107    1
    39   105   106    1
    40    69    70    2
    41    15    14   ar
    42    74    76   ar
    43    74    77   ar
    44    76    78   ar
    45    14    16   ar
    46   111   110    2
    47   109   110    1
    48   109   112    1
    49    83    82    1
    50    83    84    2
    51    18    19    1
    52    24    23    2
    53    82    81    1
    54    82    85    1
    55    77    79   ar
    56    78    80   ar
    57   112   113    1
    58   113   114    1
    59    21    19   am
    60    21    22    1
    61    66    64    1
    62    86    85    1
    63    86    88    1
    64    19    20    2
    65    65    63    1
    66    23    22    1
    67    85    87    1
    68    79    80   ar
    69    63    64    1
    70    63    60    1
    71    62    61    2
    72   114   115    1
    73    22    25    1
    74    26    25    1
    75    61    60    1
    76    60    59    1
    77   115   116    2
    78   117   116    1
    79   116   118    1
    80    58    57   ar
    81    58    56   ar
    82    51    50    2
    83    57    55   ar
    84    56    54   ar
    85    50    49    1
    86    55    53   ar
    87    54    53   ar
    88    38    37    1
    89    53    52    1
    90    49    52    1
    91    49    48    1
    92    37    36   ar
    93    37    35   ar
    94    36    34   ar
    95    42    41    2
    96    35    33   ar
    97    48    41   am
    98    34    32   ar
    99    41    40    1
   100    33    32   ar
   101    32    31    1
   102    40    43    1
   103    40    39    1
   104    31    28    1
   105    43    44    1
   106    44    45    1
   107    28    29    1
   108    28    27    1
   109    29    30    2
   110    45    46    1
   111    47    46    1
