@<TRIPOS>MOLECULE
tmp/2ohnA00.pdb
 107 101 0 0 0
SMALL
GASTEIGER

@<TRIPOS>ATOM
      1  N         73.4450   55.5250    1.9550 N.3    32  LEU32      -0.1245
      2  CA        72.7160   54.3090    1.7480 C.3    32  LEU32       0.1561
      3  C         71.2660   54.6170    1.3880 C.2    32  LEU32       0.2260
      4  O         70.5920   55.3920    2.0720 O.2    32  LEU32      -0.2867
      5  CB        72.7470   53.4870    3.0320 C.3    32  LEU32       0.0270
      6  CG        72.3490   52.0390    2.9600 C.3    32  LEU32       0.0019
      7  CD1       73.5950   51.2410    2.5960 C.3    32  LEU32       0.0001
      8  CD2       71.7650   51.5660    4.3100 C.3    32  LEU32       0.0001
      9  N         67.6030   53.3140    1.4360 N.3    34  ASP34      -0.1239
     10  CA        66.9130   52.3710    2.2980 C.3    34  ASP34       0.1674
     11  C         65.4360   52.6590    2.3190 C.2    34  ASP34       0.2266
     12  O         64.9990   53.6220    2.9670 O.2    34  ASP34      -0.2867
     13  CB        67.4800   52.4740    3.7290 C.3    34  ASP34       0.1410
     14  CG        66.8810   51.4430    4.6480 C.2    34  ASP34       0.3668
     15  OD1       66.6470   50.3310    4.1890 O.co2  34  ASP34      -0.2456
     16  OD2       66.6140   51.7290    5.8110 O.co2  34  ASP34      -0.2456
     17  N         63.3550   50.7420    3.7470 N.3    36  GLY36      -0.1210
     18  CA        62.8400   50.1040    4.9630 C.3    36  GLY36       0.1956
     19  C         62.9180   50.9470    6.2300 C.2    36  GLY36       0.2612
     20  O         62.6880   50.4400    7.3300 O.2    36  GLY36      -0.2717
     21  N         63.2040   52.2330    6.0680 N.am   37  SER37      -0.1952
     22  CA        63.2590   53.1820    7.1520 C.3    37  SER37       0.1924
     23  C         62.9800   54.6260    6.6440 C.2    37  SER37       0.2314
     24  O         62.8570   54.8700    5.4530 O.2    37  SER37      -0.2863
     25  CB        64.6260   53.0890    7.8270 C.3    37  SER37       0.2116
     26  OG        65.6350   53.5400    6.9380 O.3    37  SER37      -0.2180
     27  N         68.6870   48.9990   16.5290 N.3    73  TYR73      -0.1241
     28  CA        68.2710   47.7050   15.9840 C.3    73  TYR73       0.1605
     29  C         68.9350   46.6570   16.9210 C.2    73  TYR73       0.2264
     30  O         69.3590   47.0320   18.0200 O.2    73  TYR73      -0.2867
     31  CB        68.7010   47.5610   14.5150 C.3    73  TYR73       0.0534
     32  CG        68.7260   48.8610   13.7010 C.ar   73  TYR73      -0.0201
     33  CD1       69.9100   49.5780   13.5340 C.ar   73  TYR73      -0.0009
     34  CD2       67.5780   49.3560   13.0800 C.ar   73  TYR73      -0.0009
     35  CE1       69.9530   50.7570   12.7880 C.ar   73  TYR73       0.0417
     36  CE2       67.6120   50.5440   12.3270 C.ar   73  TYR73       0.0417
     37  CZ        68.8070   51.2360   12.1920 C.ar   73  TYR73       0.1957
     38  OH        68.8700   52.4030   11.4580 O.3    73  TYR73      -0.2866
     39  N         77.7790   48.9540   15.7780 N.3   109  LYS109     -0.1231
     40  CA        77.4910   47.9870   14.7120 C.3   109  LYS109      0.1693
     41  C         76.5420   48.5270   13.6310 C.2   109  LYS109      0.2592
     42  O         75.7050   47.8110   13.0930 O.2   109  LYS109     -0.2718
     43  CB        77.0220   46.6590   15.3280 C.3   109  LYS109      0.0285
     44  CG        78.2060   45.9070   15.9960 C.3   109  LYS109      0.0035
     45  CD        77.7840   44.6910   16.8410 C.3   109  LYS109      0.0206
     46  CE        79.0220   44.0120   17.4860 C.3   109  LYS109      0.1093
     47  NZ        78.7760   42.5860   17.8890 N.3   109  LYS109     -0.1314
     48  N         76.7060   49.8120   13.3280 N.am  110  PHE110     -0.1976
     49  CA        75.9500   50.4750   12.2980 C.3   110  PHE110      0.1639
     50  C         76.8500   50.6060   11.0750 C.2   110  PHE110      0.2290
     51  O         76.5940   50.0160   10.0190 O.2   110  PHE110     -0.2864
     52  CB        75.4730   51.8500   12.7810 C.3   110  PHE110      0.0560
     53  CG        74.7000   52.6090   11.7510 C.ar  110  PHE110     -0.0200
     54  CD1       73.5050   52.1010   11.2540 C.ar  110  PHE110     -0.0042
     55  CD2       75.1800   53.8030   11.2420 C.ar  110  PHE110     -0.0042
     56  CE1       72.7900   52.7860   10.2900 C.ar  110  PHE110     -0.0003
     57  CE2       74.4710   54.5020   10.3050 C.ar  110  PHE110     -0.0003
     58  CZ        73.2640   53.9940    9.8190 C.ar  110  PHE110     -0.0000
     59  N         79.9510   49.9880    8.6540 N.3   112  ILE112     -0.1245
     60  CA        80.5950   48.7520    8.2420 C.3   112  ILE112      0.1561
     61  C         82.0350   49.0540    7.9040 C.2   112  ILE112      0.2260
     62  O         82.3340   50.0050    7.1710 O.2   112  ILE112     -0.2867
     63  CB        79.9490   48.1560    6.9570 C.3   112  ILE112      0.0252
     64  CG1       78.4950   47.7520    7.1840 C.3   112  ILE112      0.0019
     65  CG2       80.7640   46.9650    6.4430 C.3   112  ILE112      0.0019
     66  CD1       77.8000   47.2700    5.8830 C.3   112  ILE112      0.0001
     67  N         80.1280   54.0770    2.3280 N.3   117  TRP117     -0.1241
     68  CA        79.0160   54.9380    2.6870 C.3   117  TRP117      0.1605
     69  C         79.1180   55.4510    4.1370 C.2   117  TRP117      0.2264
     70  O         79.7370   54.8080    4.9980 O.2   117  TRP117     -0.2867
     71  CB        77.6610   54.2480    2.3990 C.3   117  TRP117      0.0550
     72  CG        77.3850   52.9700    3.1160 C.ar  117  TRP117      0.0003
     73  CD1       77.5970   51.7200    2.6450 C.ar  117  TRP117      0.0946
     74  CD2       76.8000   52.8060    4.4340 C.ar  117  TRP117      0.0152
     75  NE1       77.2170   50.7890    3.5850 N.ar  117  TRP117     -0.2442
     76  CE2       76.7200   51.4280    4.6840 C.ar  117  TRP117      0.0810
     77  CE3       76.3560   53.6910    5.4210 C.ar  117  TRP117      0.0012
     78  CZ2       76.2110   50.9080    5.8800 C.ar  117  TRP117      0.0191
     79  CZ3       75.8540   53.1750    6.6030 C.ar  117  TRP117      0.0001
     80  CH2       75.7900   51.7980    6.8270 C.ar  117  TRP117      0.0015
     81  N         72.5550   57.1780    5.8540 N.3   120  ILE120     -0.1245
     82  CA        71.3990   56.3880    5.4330 C.3   120  ILE120      0.1561
     83  C         70.2620   57.3390    5.0880 C.2   120  ILE120      0.2260
     84  O         69.9620   58.2730    5.8510 O.2   120  ILE120     -0.2867
     85  CB        70.9870   55.3810    6.5330 C.3   120  ILE120      0.0252
     86  CG1       69.8750   54.4170    6.0700 C.3   120  ILE120      0.0019
     87  CG2       70.5870   56.1110    7.8100 C.3   120  ILE120      0.0019
     88  CD1       69.4820   53.3430    7.1520 C.3   120  ILE120      0.0001
     89  N         62.1710   46.4320    0.8710 N.3   220  ASP220     -0.1239
     90  CA        63.2960   47.0370    1.6110 C.3   220  ASP220      0.1674
     91  C         64.6020   46.9130    0.8630 C.2   220  ASP220      0.2266
     92  O         65.2390   45.8670    0.8500 O.2   220  ASP220     -0.2867
     93  CB        63.4430   46.3650    2.9600 C.3   220  ASP220      0.1410
     94  CG        64.4800   47.0460    3.8460 C.2   220  ASP220      0.3668
     95  OD1       64.9910   48.1330    3.4850 O.co2 220  ASP220     -0.2456
     96  OD2       64.7500   46.4840    4.9140 O.co2 220  ASP220     -0.2456
     97  N         67.3090   48.1290    1.7140 N.3   222  GLY222     -0.1210
     98  CA        68.4500   48.0920    2.6240 C.3   222  GLY222      0.1956
     99  C         68.7640   46.7110    3.1720 C.2   222  GLY222      0.2612
    100  O         69.6730   46.5700    3.9730 O.2   222  GLY222     -0.2717
    101  N         67.9900   45.7020    2.7660 N.am  223  THR223     -0.1952
    102  CA        68.1290   44.3410    3.2630 C.3   223  THR223      0.1897
    103  C         68.6000   43.5400    2.0790 C.2   223  THR223      0.2313
    104  O         68.1060   43.7260    0.9690 O.2   223  THR223     -0.2863
    105  CB        66.7880   43.7650    3.7910 C.3   223  THR223      0.1794
    106  OG1       66.3480   44.5180    4.9230 O.3   223  THR223     -0.2208
    107  CG2       66.9090   42.2830    4.1790 C.3   223  THR223      0.0378
@<TRIPOS>BOND
     1    92    91    2
     2    91    90    1
     3    89    90    1
     4   104   103    2
     5     3     2    1
     6     3     4    2
     7     9    10    1
     8    90    93    1
     9    97    98    1
    10     2     1    1
    11     2     5    1
    12   103   102    1
    13    10    11    1
    14    10    13    1
    15    11    12    2
    16    67    68    1
    17    71    68    1
    18    71    72    1
    19     7     6    1
    20    98    99    1
    21    73    72   ar
    22    73    75   ar
    23    68    69    1
    24   101    99   am
    25   101   102    1
    26     6     5    1
    27     6     8    1
    28    93    94    1
    29    72    74   ar
    30    99   100    2
    31   102   105    1
    32    95    94   ar
    33    75    76   ar
    34    13    14    1
    35    17    18    1
    36   105   107    1
    37   105   106    1
    38    94    96   ar
    39    69    70    2
    40    15    14   ar
    41    74    76   ar
    42    74    77   ar
    43    14    16   ar
    44    76    78   ar
    45    18    19    1
    46    83    82    1
    47    83    84    2
    48    77    79   ar
    49    82    81    1
    50    82    85    1
    51    24    23    2
    52    78    80   ar
    53    66    64    1
    54    21    19   am
    55    21    22    1
    56    86    85    1
    57    86    88    1
    58    19    20    2
    59    65    63    1
    60    85    87    1
    61    79    80   ar
    62    23    22    1
    63    26    25    1
    64    63    64    1
    65    63    60    1
    66    22    25    1
    67    62    61    2
    68    61    60    1
    69    60    59    1
    70    58    56   ar
    71    58    57   ar
    72    51    50    2
    73    56    54   ar
    74    57    55   ar
    75    50    49    1
    76    55    53   ar
    77    54    53   ar
    78    38    37    1
    79    53    52    1
    80    37    36   ar
    81    37    35   ar
    82    49    52    1
    83    49    48    1
    84    36    34   ar
    85    35    33   ar
    86    34    32   ar
    87    42    41    2
    88    48    41   am
    89    33    32   ar
    90    41    40    1
    91    32    31    1
    92    31    28    1
    93    40    43    1
    94    40    39    1
    95    43    44    1
    96    28    27    1
    97    28    29    1
    98    44    45    1
    99    45    46    1
   100    29    30    2
   101    46    47    1
