@<TRIPOS>MOLECULE
tmp/2ohpA00.pdb
 133 125 0 0 0
SMALL
GASTEIGER

@<TRIPOS>ATOM
      1  N         76.2550   42.7790   -0.1670 N.3    13  GLY13      -0.1210
      2  CA        75.9860   42.7270    1.2560 C.3    13  GLY13       0.1956
      3  C         76.0330   44.0720    1.9510 C.2    13  GLY13       0.2612
      4  O         75.4600   44.1910    3.0230 O.2    13  GLY13      -0.2717
      5  N         76.6850   45.0760    1.3470 N.am   14  GLN14      -0.1965
      6  CA        76.8810   46.4110    1.9580 C.3    14  GLN14       0.1733
      7  C         75.9440   47.5120    1.4370 C.2    14  GLN14       0.2616
      8  O         76.1950   48.7020    1.6780 O.2    14  GLN14      -0.2715
      9  CB        78.3290   46.8780    1.7510 C.3    14  GLN14       0.0408
     10  CG        79.3440   46.0290    2.4770 C.3    14  GLN14       0.0908
     11  CD        80.7700   46.4610    2.2810 C.2    14  GLN14       0.2608
     12  OE1       81.6720   45.8230    2.8060 O.2    14  GLN14      -0.2717
     13  NE2       80.9920   47.5480    1.5500 N.am   14  GLN14      -0.0878
     14  N         74.8890   47.1230    0.7160 N.am   15  GLY15      -0.1955
     15  CA        73.8550   48.0440    0.2660 C.3    15  GLY15       0.1869
     16  C         74.2300   48.9540   -0.8830 C.2    15  GLY15       0.2309
     17  O         75.3720   48.9710   -1.3200 O.2    15  GLY15      -0.2863
     18  N         73.4460   55.6350    1.8380 N.3    32  LEU32      -0.1245
     19  CA        72.7620   54.3910    1.6250 C.3    32  LEU32       0.1561
     20  C         71.2780   54.6650    1.3730 C.2    32  LEU32       0.2260
     21  O         70.6340   55.3370    2.1540 O.2    32  LEU32      -0.2867
     22  CB        72.9090   53.5200    2.8600 C.3    32  LEU32       0.0270
     23  CG        72.2810   52.1300    2.7900 C.3    32  LEU32       0.0019
     24  CD1       73.3770   51.0880    2.9250 C.3    32  LEU32       0.0001
     25  CD2       71.2380   51.9160    3.8770 C.3    32  LEU32       0.0001
     26  N         67.5800   53.4610    1.5080 N.3    34  ASP34      -0.1239
     27  CA        66.8810   52.5750    2.4380 C.3    34  ASP34       0.1674
     28  C         65.3580   52.7850    2.4170 C.2    34  ASP34       0.2266
     29  O         64.8270   53.6760    3.1060 O.2    34  ASP34      -0.2867
     30  CB        67.4130   52.8010    3.8700 C.3    34  ASP34       0.1410
     31  CG        66.8810   51.7710    4.8520 C.2    34  ASP34       0.3668
     32  OD1       66.3450   50.7860    4.3630 O.co2  34  ASP34      -0.2456
     33  OD2       66.9980   51.9090    6.0970 O.co2  34  ASP34      -0.2456
     34  N         63.4250   50.8920    3.7620 N.3    36  GLY36      -0.1210
     35  CA        62.9710   50.2360    4.9990 C.3    36  GLY36       0.1956
     36  C         63.0300   51.0740    6.2660 C.2    36  GLY36       0.2612
     37  O         62.7930   50.5640    7.3500 O.2    36  GLY36      -0.2717
     38  N         63.3290   52.3570    6.1160 N.am   37  SER37      -0.1952
     39  CA        63.3650   53.3090    7.2150 C.3    37  SER37       0.1924
     40  C         63.0570   54.7130    6.6910 C.2    37  SER37       0.2314
     41  O         62.9450   54.9350    5.4720 O.2    37  SER37      -0.2863
     42  CB        64.7420   53.2580    7.9080 C.3    37  SER37       0.2116
     43  OG        65.8180   53.6400    7.0460 O.3    37  SER37      -0.2180
     44  N         68.9730   48.7190   17.3540 N.3    73  TYR73      -0.1241
     45  CA        68.8670   47.5520   16.4870 C.3    73  TYR73       0.1605
     46  C         69.1580   46.3220   17.3650 C.2    73  TYR73       0.2264
     47  O         69.2010   46.4470   18.5980 O.2    73  TYR73      -0.2867
     48  CB        69.8890   47.6600   15.3540 C.3    73  TYR73       0.0534
     49  CG        69.6280   48.7970   14.3900 C.ar   73  TYR73      -0.0201
     50  CD1       70.5270   49.8640   14.2640 C.ar   73  TYR73      -0.0009
     51  CD2       68.4810   48.8000   13.5870 C.ar   73  TYR73      -0.0009
     52  CE1       70.2840   50.9080   13.3580 C.ar   73  TYR73       0.0417
     53  CE2       68.2280   49.8410   12.6730 C.ar   73  TYR73       0.0417
     54  CZ        69.1280   50.8930   12.5650 C.ar   73  TYR73       0.1957
     55  OH        68.8590   51.9160   11.6740 O.3    73  TYR73      -0.2866
     56  N         76.7640   49.8000   13.2120 N.3   110  PHE110     -0.1241
     57  CA        75.9680   50.4970   12.2190 C.3   110  PHE110      0.1605
     58  C         76.7950   50.6910   10.9520 C.2   110  PHE110      0.2264
     59  O         76.4370   50.2090    9.8850 O.2   110  PHE110     -0.2867
     60  CB        75.5020   51.8270   12.7740 C.3   110  PHE110      0.0534
     61  CG        74.7200   52.6440   11.7970 C.ar  110  PHE110     -0.0203
     62  CD1       73.4160   52.2710   11.4470 C.ar  110  PHE110     -0.0042
     63  CD2       75.2700   53.7880   11.2300 C.ar  110  PHE110     -0.0042
     64  CE1       72.6710   53.0130   10.5410 C.ar  110  PHE110     -0.0003
     65  CE2       74.5330   54.5530   10.3220 C.ar  110  PHE110     -0.0003
     66  CZ        73.2160   54.1560    9.9780 C.ar  110  PHE110     -0.0000
     67  N         79.9480   50.1500    8.4070 N.3   112  ILE112     -0.1245
     68  CA        80.5840   48.9110    7.9730 C.3   112  ILE112      0.1561
     69  C         82.0250   49.2320    7.6900 C.2   112  ILE112      0.2260
     70  O         82.3190   50.1300    6.8790 O.2   112  ILE112     -0.2867
     71  CB        79.9310   48.3160    6.6720 C.3   112  ILE112      0.0252
     72  CG1       78.4940   47.8690    6.9290 C.3   112  ILE112      0.0019
     73  CG2       80.7480   47.1100    6.1250 C.3   112  ILE112      0.0019
     74  CD1       77.8130   47.2970    5.6700 C.3   112  ILE112      0.0001
     75  N         80.1020   54.2320    2.2460 N.3   117  TRP117     -0.1241
     76  CA        79.0030   55.1350    2.6380 C.3   117  TRP117      0.1605
     77  C         79.1180   55.6020    4.1110 C.2   117  TRP117      0.2264
     78  O         79.7460   54.9480    4.9770 O.2   117  TRP117     -0.2867
     79  CB        77.6200   54.5240    2.3110 C.3   117  TRP117      0.0550
     80  CG        77.3070   53.2550    3.0110 C.ar  117  TRP117      0.0003
     81  CD1       77.4670   52.0210    2.5190 C.ar  117  TRP117      0.0946
     82  CD2       76.7650   53.0930    4.3440 C.ar  117  TRP117      0.0152
     83  NE1       77.0900   51.0750    3.4550 N.ar  117  TRP117     -0.2442
     84  CE2       76.6400   51.7100    4.5770 C.ar  117  TRP117      0.0810
     85  CE3       76.3730   53.9750    5.3480 C.ar  117  TRP117      0.0012
     86  CZ2       76.1480   51.1900    5.7750 C.ar  117  TRP117      0.0191
     87  CZ3       75.8980   53.4620    6.5360 C.ar  117  TRP117      0.0001
     88  CH2       75.7850   52.0810    6.7420 C.ar  117  TRP117      0.0015
     89  N         72.6380   57.2940    5.7750 N.3   120  ILE120     -0.1245
     90  CA        71.4880   56.5170    5.3410 C.3   120  ILE120      0.1561
     91  C         70.3650   57.4720    4.9460 C.2   120  ILE120      0.2260
     92  O         70.0990   58.4730    5.6380 O.2   120  ILE120     -0.2867
     93  CB        71.0360   55.5760    6.4520 C.3   120  ILE120      0.0252
     94  CG1       69.8320   54.7460    6.0220 C.3   120  ILE120      0.0019
     95  CG2       70.6620   56.3670    7.7100 C.3   120  ILE120      0.0019
     96  CD1       69.3570   53.8260    7.1220 C.3   120  ILE120      0.0001
     97  N         62.0740   46.5110    0.7380 N.3   220  ASP220     -0.1239
     98  CA        63.1820   47.1440    1.4620 C.3   220  ASP220      0.1674
     99  C         64.5330   47.0390    0.7720 C.2   220  ASP220      0.2266
    100  O         65.1340   45.9810    0.7240 O.2   220  ASP220     -0.2867
    101  CB        63.3160   46.4930    2.8170 C.3   220  ASP220      0.1410
    102  CG        64.3650   47.1440    3.6590 C.2   220  ASP220      0.3668
    103  OD1       65.0120   48.1080    3.1890 O.co2 220  ASP220     -0.2456
    104  OD2       64.5260   46.6790    4.7940 O.co2 220  ASP220     -0.2456
    105  N         67.2280   48.2750    1.8620 N.3   222  GLY222     -0.1210
    106  CA        68.2570   48.2030    2.8940 C.3   222  GLY222      0.1956
    107  C         68.4700   46.8190    3.4970 C.2   222  GLY222      0.2613
    108  O         69.2580   46.6790    4.4270 O.2   222  GLY222     -0.2717
    109  N         67.7380   45.8080    3.0070 N.am  223  THR223     -0.1938
    110  CA        67.9390   44.4130    3.4070 C.3   223  THR223      0.2028
    111  C         68.4550   43.6590    2.1910 C.2   223  THR223      0.2642
    112  O         68.0200   43.8940    1.0610 O.2   223  THR223     -0.2714
    113  CB        66.6280   43.7520    3.8650 C.3   223  THR223      0.1808
    114  OG1       66.0760   44.4540    4.9920 O.3   223  THR223     -0.2208
    115  CG2       66.8510   42.2790    4.2180 C.3   223  THR223      0.0379
    116  N         69.3900   42.7490    2.4250 N.am  224  THR224     -0.1950
    117  CA        69.9880   41.9470    1.3590 C.3   224  THR224      0.1897
    118  C         69.0870   40.8070    0.9060 C.2   224  THR224      0.2313
    119  O         68.9760   40.5010   -0.2870 O.2   224  THR224     -0.2863
    120  CB        71.2840   41.3200    1.8610 C.3   224  THR224      0.1794
    121  OG1       72.1920   42.3650    2.2040 O.3   224  THR224     -0.2208
    122  CG2       71.8990   40.4090    0.8040 C.3   224  THR224      0.0378
    123  N         63.4590   37.6740    3.2700 N.3   227  ARG227     -0.1245
    124  CA        63.2090   37.1810    4.6030 C.3   227  ARG227      0.1563
    125  C         61.7290   36.7810    4.7070 C.2   227  ARG227      0.2260
    126  O         60.8700   37.5150    4.2220 O.2   227  ARG227     -0.2867
    127  CB        63.5570   38.2580    5.6310 C.3   227  ARG227      0.0307
    128  CG        65.0360   38.7180    5.5740 C.3   227  ARG227      0.0489
    129  CD        65.3790   39.8030    6.6150 C.3   227  ARG227      0.2205
    130  NE        64.9610   39.4750    7.9780 N.pl3 227  ARG227     -0.0865
    131  CZ        64.9480   40.3350    9.0000 C.cat 227  ARG227      0.5346
    132  NH1       65.3470   41.5930    8.8380 N.pl3 227  ARG227      0.1354
    133  NH2       64.5290   39.9440   10.2030 N.pl3 227  ARG227      0.1354
@<TRIPOS>BOND
     1    17    16    2
     2    16    15    1
     3   119   118    2
     4     1     2    1
     5    15    14    1
     6    14     7   am
     7   100    99    2
     8    97    98    1
     9    99    98    1
    10   122   120    1
    11   118   117    1
    12   112   111    2
    13     2     3    1
    14     5     3   am
    15     5     6    1
    16   117   120    1
    17   117   116    1
    18    20    19    1
    19    20    21    2
    20     7     8    2
    21     7     6    1
    22    98   101    1
    23    26    27    1
    24    13    11   am
    25    19    18    1
    26    19    22    1
    27     9     6    1
    28     9    10    1
    29   120   121    1
    30   105   106    1
    31     3     4    2
    32   111   116   am
    33   111   110    1
    34    75    76    1
    35    11    10    1
    36    11    12    2
    37    79    76    1
    38    79    80    1
    39    28    27    1
    40    28    29    2
    41    27    30    1
    42    81    80   ar
    43    81    83   ar
    44    76    77    1
    45    23    22    1
    46    23    24    1
    47    23    25    1
    48   101   102    1
    49   106   107    1
    50   109   110    1
    51   109   107   am
    52    80    82   ar
    53   103   102   ar
    54   123   124    1
    55   110   113    1
    56    83    84   ar
    57   107   108    2
    58   102   104   ar
    59    34    35    1
    60   113   115    1
    61   113   114    1
    62    30    31    1
    63    77    78    2
    64   126   125    2
    65    82    84   ar
    66    82    85   ar
    67    32    31   ar
    68    84    86   ar
    69   124   125    1
    70   124   127    1
    71    31    33   ar
    72    91    90    1
    73    91    92    2
    74    35    36    1
    75    90    89    1
    76    90    93    1
    77    85    87   ar
    78    41    40    2
    79   128   127    1
    80   128   129    1
    81    74    72    1
    82    86    88   ar
    83    94    93    1
    84    94    96    1
    85    38    36   am
    86    38    39    1
    87    73    71    1
    88    36    37    2
    89    93    95    1
    90    87    88   ar
    91   129   130    1
    92    71    72    1
    93    71    68    1
    94    40    39    1
    95    70    69    2
    96    43    42    1
    97    39    42    1
    98    69    68    1
    99    68    67    1
   100   130   131    2
   101   132   131    1
   102   131   133    1
   103    59    58    2
   104    66    65   ar
   105    66    64   ar
   106    65    63   ar
   107    64    62   ar
   108    58    57    1
   109    63    61   ar
   110    62    61   ar
   111    55    54    1
   112    61    60    1
   113    57    60    1
   114    57    56    1
   115    54    53   ar
   116    54    52   ar
   117    53    51   ar
   118    52    50   ar
   119    51    49   ar
   120    50    49   ar
   121    49    48    1
   122    48    45    1
   123    45    44    1
   124    45    46    1
   125    46    47    2
