@<TRIPOS>MOLECULE
tmp/2ohqA00.pdb
 154 148 0 0 0
SMALL
GASTEIGER

@<TRIPOS>ATOM
      1  N         76.2890   42.5810   -0.2980 N.3    13  GLY13      -0.1210
      2  CA        75.9220   42.5320    1.1040 C.3    13  GLY13       0.1956
      3  C         75.9670   43.8380    1.8740 C.2    13  GLY13       0.2612
      4  O         75.5390   43.8550    3.0240 O.2    13  GLY13      -0.2717
      5  N         76.4560   44.9240    1.2610 N.am   14  GLN14      -0.1965
      6  CA        76.7530   46.1840    1.9820 C.3    14  GLN14       0.1733
      7  C         75.8470   47.3610    1.6040 C.2    14  GLN14       0.2617
      8  O         76.0840   48.4810    2.0550 O.2    14  GLN14      -0.2715
      9  CB        78.1940   46.6290    1.7050 C.3    14  GLN14       0.0408
     10  CG        79.2750   45.9290    2.4910 C.3    14  GLN14       0.0908
     11  CD        80.6480   46.5200    2.2440 C.2    14  GLN14       0.2608
     12  OE1       81.6390   46.0070    2.7330 O.2    14  GLN14      -0.2717
     13  NE2       80.7120   47.6130    1.4910 N.am   14  GLN14      -0.0878
     14  N         74.8550   47.1280    0.7450 N.am   15  GLY15      -0.1940
     15  CA        73.8690   48.1370    0.3840 C.3    15  GLY15       0.2014
     16  C         74.2110   49.0240   -0.7900 C.2    15  GLY15       0.2638
     17  O         75.3460   49.0840   -1.2590 O.2    15  GLY15      -0.2714
     18  N         73.2090   49.7640   -1.2380 N.am   16  TYR16      -0.1973
     19  CA        73.3580   50.6460   -2.3970 C.3    16  TYR16       0.1639
     20  C         73.2970   52.0820   -1.9090 C.2    16  TYR16       0.2290
     21  O         72.4290   52.4270   -1.1190 O.2    16  TYR16      -0.2864
     22  CB        72.2140   50.3820   -3.3800 C.3    16  TYR16       0.0560
     23  CG        72.2800   49.0580   -4.0980 C.ar   16  TYR16      -0.0198
     24  CD1       71.7630   47.8950   -3.5400 C.ar   16  TYR16      -0.0009
     25  CD2       72.8540   48.9780   -5.3460 C.ar   16  TYR16      -0.0009
     26  CE1       71.8090   46.6960   -4.2460 C.ar   16  TYR16       0.0417
     27  CE2       72.9160   47.7940   -6.0290 C.ar   16  TYR16       0.0417
     28  CZ        72.3890   46.6730   -5.4940 C.ar   16  TYR16       0.1957
     29  OH        72.4920   45.5240   -6.2340 O.3    16  TYR16      -0.2866
     30  N         73.3840   55.6050    2.0250 N.3    32  LEU32      -0.1245
     31  CA        72.6420   54.3690    1.7930 C.3    32  LEU32       0.1561
     32  C         71.1740   54.6300    1.4650 C.2    32  LEU32       0.2260
     33  O         70.4860   55.2880    2.2270 O.2    32  LEU32      -0.2867
     34  CB        72.6810   53.4900    3.0400 C.3    32  LEU32       0.0270
     35  CG        71.9210   52.1690    2.8990 C.3    32  LEU32       0.0019
     36  CD1       72.8410   51.1890    2.1980 C.3    32  LEU32       0.0001
     37  CD2       71.4530   51.6010    4.2570 C.3    32  LEU32       0.0001
     38  N         67.5850   53.4560    1.6220 N.3    34  ASP34      -0.1239
     39  CA        66.8650   52.5540    2.5040 C.3    34  ASP34       0.1674
     40  C         65.3580   52.7910    2.4840 C.2    34  ASP34       0.2266
     41  O         64.8660   53.6860    3.1650 O.2    34  ASP34      -0.2867
     42  CB        67.4020   52.7480    3.9340 C.3    34  ASP34       0.1410
     43  CG        66.8630   51.7030    4.9030 C.2    34  ASP34       0.3668
     44  OD1       66.2610   50.7210    4.4280 O.co2  34  ASP34      -0.2456
     45  OD2       67.0630   51.8410    6.1290 O.co2  34  ASP34      -0.2456
     46  N         63.3290   50.8800    3.8810 N.3    36  GLY36      -0.1210
     47  CA        62.8670   50.2690    5.1270 C.3    36  GLY36       0.1956
     48  C         63.0020   51.1030    6.3940 C.2    36  GLY36       0.2612
     49  O         62.7490   50.5960    7.4850 O.2    36  GLY36      -0.2717
     50  N         63.3840   52.3710    6.2590 N.am   37  SER37      -0.1952
     51  CA        63.3940   53.3160    7.3690 C.3    37  SER37       0.1924
     52  C         63.0650   54.7400    6.8850 C.2    37  SER37       0.2314
     53  O         62.9000   54.9820    5.6830 O.2    37  SER37      -0.2863
     54  CB        64.7490   53.2390    8.1090 C.3    37  SER37       0.2116
     55  OG        65.8260   53.6120    7.2690 O.3    37  SER37      -0.2180
     56  N         69.0270   48.7000   17.4610 N.3    73  TYR73      -0.1241
     57  CA        68.7850   47.4810   16.7090 C.3    73  TYR73       0.1605
     58  C         69.1000   46.2930   17.6120 C.2    73  TYR73       0.2264
     59  O         69.6100   46.4660   18.7350 O.2    73  TYR73      -0.2867
     60  CB        69.7020   47.4310   15.4990 C.3    73  TYR73       0.0534
     61  CG        69.6290   48.6530   14.6250 C.ar   73  TYR73      -0.0201
     62  CD1       70.5930   49.6540   14.7080 C.ar   73  TYR73      -0.0009
     63  CD2       68.6040   48.8000   13.6970 C.ar   73  TYR73      -0.0009
     64  CE1       70.5340   50.7770   13.8920 C.ar   73  TYR73       0.0417
     65  CE2       68.5330   49.9160   12.8720 C.ar   73  TYR73       0.0417
     66  CZ        69.4960   50.9080   12.9740 C.ar   73  TYR73       0.1957
     67  OH        69.4110   52.0170   12.1440 O.3    73  TYR73      -0.2866
     68  N         77.9820   48.9140   15.7720 N.3   109  LYS109     -0.1231
     69  CA        77.6300   47.9240   14.7240 C.3   109  LYS109      0.1693
     70  C         76.6880   48.5060   13.6380 C.2   109  LYS109      0.2592
     71  O         75.8240   47.8210   13.0720 O.2   109  LYS109     -0.2718
     72  CB        77.0520   46.6510   15.3730 C.3   109  LYS109      0.0285
     73  CG        78.1060   45.7880   16.0830 C.3   109  LYS109      0.0035
     74  CD        77.4270   44.7250   16.9680 C.3   109  LYS109      0.0206
     75  CE        78.4110   43.8600   17.7910 C.3   109  LYS109      0.1093
     76  NZ        77.7330   43.3600   19.0630 N.3   109  LYS109     -0.1314
     77  N         76.9000   49.7830   13.3390 N.am  110  PHE110     -0.1976
     78  CA        76.1320   50.4880   12.3470 C.3   110  PHE110      0.1639
     79  C         76.9830   50.6530   11.1080 C.2   110  PHE110      0.2290
     80  O         76.6560   50.1150   10.0540 O.2   110  PHE110     -0.2864
     81  CB        75.6680   51.8380   12.9050 C.3   110  PHE110      0.0560
     82  CG        74.8450   52.6410   11.9530 C.ar  110  PHE110     -0.0200
     83  CD1       73.5160   52.3040   11.7100 C.ar  110  PHE110     -0.0042
     84  CD2       75.3830   53.7540   11.3130 C.ar  110  PHE110     -0.0042
     85  CE1       72.7470   53.0420   10.8350 C.ar  110  PHE110     -0.0003
     86  CE2       74.6120   54.5100   10.4360 C.ar  110  PHE110     -0.0003
     87  CZ        73.2910   54.1560   10.1990 C.ar  110  PHE110     -0.0000
     88  N         79.9650   50.0770    8.5050 N.3   112  ILE112     -0.1245
     89  CA        80.6100   48.8280    8.1040 C.3   112  ILE112      0.1561
     90  C         82.0540   49.1480    7.7740 C.2   112  ILE112      0.2260
     91  O         82.3280   50.0520    6.9750 O.2   112  ILE112     -0.2867
     92  CB        79.9300   48.1790    6.8520 C.3   112  ILE112      0.0252
     93  CG1       78.4800   47.7410    7.1580 C.3   112  ILE112      0.0019
     94  CG2       80.7790   47.0060    6.3190 C.3   112  ILE112      0.0019
     95  CD1       77.6650   47.4130    5.8780 C.3   112  ILE112      0.0001
     96  N         80.0160   54.2130    2.3000 N.3   117  TRP117     -0.1241
     97  CA        78.9560   55.1410    2.6740 C.3   117  TRP117      0.1605
     98  C         79.0440   55.5720    4.1560 C.2   117  TRP117      0.2264
     99  O         79.5940   54.8630    5.0220 O.2   117  TRP117     -0.2867
    100  CB        77.5770   54.5790    2.3140 C.3   117  TRP117      0.0550
    101  CG        77.2440   53.2570    2.9540 C.ar  117  TRP117      0.0003
    102  CD1       77.3550   52.0310    2.3700 C.ar  117  TRP117      0.0946
    103  CD2       76.7370   53.0200    4.2890 C.ar  117  TRP117      0.0152
    104  NE1       76.9590   51.0450    3.2580 N.ar  117  TRP117     -0.2442
    105  CE2       76.5820   51.6240    4.4360 C.ar  117  TRP117      0.0810
    106  CE3       76.4000   53.8500    5.3680 C.ar  117  TRP117      0.0012
    107  CZ2       76.0820   51.0390    5.6130 C.ar  117  TRP117      0.0191
    108  CZ3       75.9320   53.2740    6.5330 C.ar  117  TRP117      0.0001
    109  CH2       75.7740   51.8800    6.6500 C.ar  117  TRP117      0.0015
    110  N         72.5890   57.2880    6.0110 N.3   120  ILE120     -0.1245
    111  CA        71.4060   56.5440    5.5470 C.3   120  ILE120      0.1561
    112  C         70.2760   57.4930    5.1460 C.2   120  ILE120      0.2260
    113  O         70.0020   58.4740    5.8430 O.2   120  ILE120     -0.2867
    114  CB        70.9110   55.5750    6.6320 C.3   120  ILE120      0.0252
    115  CG1       69.6790   54.7960    6.1630 C.3   120  ILE120      0.0019
    116  CG2       70.6040   56.3280    7.9280 C.3   120  ILE120      0.0019
    117  CD1       69.0360   54.0140    7.2670 C.3   120  ILE120      0.0001
    118  N         62.0270   46.4440    0.8480 N.3   220  ASP220     -0.1225
    119  CA        63.1320   47.0550    1.6290 C.3   220  ASP220      0.1805
    120  C         64.4970   47.0100    0.9720 C.2   220  ASP220      0.2598
    121  O         65.1880   45.9860    0.9680 O.2   220  ASP220     -0.2718
    122  CB        63.2080   46.3790    2.9910 C.3   220  ASP220      0.1424
    123  CG        64.1730   47.0660    3.9270 C.2   220  ASP220      0.3668
    124  OD1       64.7610   48.1250    3.5670 O.co2 220  ASP220     -0.2456
    125  OD2       64.3570   46.5060    5.0150 O.co2 220  ASP220     -0.2456
    126  N         64.9120   48.1390    0.4200 N.am  221  SER221     -0.1938
    127  CA        66.1880   48.2100   -0.2400 C.3   221  SER221      0.2055
    128  C         67.3620   48.0930    0.7570 C.2   221  SER221      0.2644
    129  O         68.4970   47.9360    0.3350 O.2   221  SER221     -0.2714
    130  CB        66.3220   49.4960   -1.0470 C.3   221  SER221      0.2130
    131  OG        66.3310   50.5890   -0.1690 O.3   221  SER221     -0.2179
    132  N         67.0920   48.1980    2.0540 N.am  222  GLY222     -0.1939
    133  CA        68.1490   48.1510    3.0780 C.3   222  GLY222      0.2014
    134  C         68.3630   46.7940    3.7380 C.2   222  GLY222      0.2640
    135  O         69.0810   46.7040    4.7410 O.2   222  GLY222     -0.2714
    136  N         67.6910   45.7560    3.2210 N.am  223  THR223     -0.1936
    137  CA        67.8610   44.3770    3.6740 C.3   223  THR223      0.2028
    138  C         68.3490   43.6020    2.4710 C.2   223  THR223      0.2642
    139  O         67.8620   43.7920    1.3550 O.2   223  THR223     -0.2714
    140  CB        66.5500   43.7540    4.1730 C.3   223  THR223      0.1808
    141  OG1       66.0980   44.4310    5.3480 O.3   223  THR223     -0.2208
    142  CG2       66.7190   42.2880    4.4830 C.3   223  THR223      0.0379
    143  N         69.3480   42.7520    2.6810 N.am  224  THR224     -0.1950
    144  CA        69.9080   41.9460    1.6050 C.3   224  THR224      0.1897
    145  C         68.9560   40.7970    1.2340 C.2   224  THR224      0.2313
    146  O         68.7780   40.4890    0.0480 O.2   224  THR224     -0.2863
    147  CB        71.2680   41.3170    2.0310 C.3   224  THR224      0.1794
    148  OG1       72.2130   42.3450    2.3740 O.3   224  THR224     -0.2208
    149  CG2       71.8450   40.4770    0.9200 C.3   224  THR224      0.0378
    150  N         67.0660   43.0860   -1.3110 N.3   327  ALA327     -0.1245
    151  CA        67.8030   43.2060   -2.5530 C.3   327  ALA327      0.1562
    152  C         67.7670   41.9370   -3.3980 C.2   327  ALA327      0.2260
    153  O         67.8140   42.0060   -4.6210 O.2   327  ALA327     -0.2867
    154  CB        69.2510   43.6700   -2.2790 C.3   327  ALA327      0.0290
@<TRIPOS>BOND
     1    29    28    1
     2    27    28   ar
     3    27    25   ar
     4    28    26   ar
     5    25    23   ar
     6   153   152    2
     7    26    24   ar
     8    23    24   ar
     9    23    22    1
    10   152   151    1
    11    22    19    1
    12   151   154    1
    13   151   150    1
    14    19    20    1
    15    19    18    1
    16    20    21    2
    17    17    16    2
    18    18    16   am
    19   130   127    1
    20   130   131    1
    21    16    15    1
    22     1     2    1
    23   127   126    1
    24   127   128    1
    25   146   145    2
    26   129   128    2
    27    15    14    1
    28   126   120   am
    29    14     7   am
    30   128   132   am
    31   118   119    1
    32   149   147    1
    33   121   120    2
    34   120   119    1
    35     2     3    1
    36   145   144    1
    37     5     3   am
    38     5     6    1
    39   139   138    2
    40    32    31    1
    41    32    33    2
    42    13    11   am
    43     7     6    1
    44     7     8    2
    45   144   147    1
    46   144   143    1
    47    38    39    1
    48   119   122    1
    49     9     6    1
    50     9    10    1
    51    31    30    1
    52    31    34    1
    53     3     4    2
    54   147   148    1
    55   132   133    1
    56    36    35    1
    57    11    10    1
    58    11    12    2
    59    96    97    1
    60   100    97    1
    61   100   101    1
    62   102   101   ar
    63   102   104   ar
    64   138   143   am
    65   138   137    1
    66    40    39    1
    67    40    41    2
    68    39    42    1
    69    97    98    1
    70    35    34    1
    71    35    37    1
    72   101   103   ar
    73   122   123    1
    74   133   134    1
    75   136   137    1
    76   136   134   am
    77   104   105   ar
    78   124   123   ar
    79   137   140    1
    80   134   135    2
    81    46    47    1
    82   123   125   ar
    83    42    43    1
    84    98    99    2
    85   140   142    1
    86   140   141    1
    87   103   105   ar
    88   103   106   ar
    89    44    43   ar
    90   105   107   ar
    91    43    45   ar
    92    47    48    1
    93   112   111    1
    94   112   113    2
    95   106   108   ar
    96   111   110    1
    97   111   114    1
    98   107   109   ar
    99    53    52    2
   100    95    93    1
   101   115   114    1
   102   115   117    1
   103    50    48   am
   104    50    51    1
   105    94    92    1
   106    48    49    2
   107   108   109   ar
   108   114   116    1
   109    92    93    1
   110    92    89    1
   111    52    51    1
   112    91    90    2
   113    55    54    1
   114    51    54    1
   115    90    89    1
   116    89    88    1
   117    80    79    2
   118    87    86   ar
   119    87    85   ar
   120    86    84   ar
   121    85    83   ar
   122    79    78    1
   123    84    82   ar
   124    83    82   ar
   125    82    81    1
   126    67    66    1
   127    78    81    1
   128    78    77    1
   129    65    66   ar
   130    65    63   ar
   131    66    64   ar
   132    71    70    2
   133    77    70   am
   134    70    69    1
   135    63    61   ar
   136    64    62   ar
   137    61    62   ar
   138    61    60    1
   139    69    72    1
   140    69    68    1
   141    72    73    1
   142    60    57    1
   143    73    74    1
   144    57    56    1
   145    57    58    1
   146    74    75    1
   147    58    59    2
   148    75    76    1
