@<TRIPOS>MOLECULE
tmp/2ohsA00.pdb
 167 158 0 0 0
SMALL
GASTEIGER

@<TRIPOS>ATOM
      1  N         73.2430   44.3700   -3.3010 N.3    12  SER12      -0.1202
      2  CA        72.2160   43.8560   -2.3910 C.3    12  SER12       0.2020
      3  C         72.8100   43.4180   -1.0630 C.2    12  SER12       0.2619
      4  O         72.0830   43.3390   -0.0640 O.2    12  SER12      -0.2717
      5  CB        71.4740   42.6620   -3.0250 C.3    12  SER12       0.2103
      6  OG        72.3320   41.5370   -3.2500 O.3    12  SER12      -0.2182
      7  N         74.1180   43.0900   -1.0810 N.am   13  GLY13      -0.1942
      8  CA        74.8660   42.6140    0.0900 C.3    13  GLY13       0.2014
      9  C         75.0010   43.6570    1.1780 C.2    13  GLY13       0.2639
     10  O         74.7500   43.3750    2.3460 O.2    13  GLY13      -0.2714
     11  N         75.3910   44.8670    0.7910 N.am   14  GLN14      -0.1963
     12  CA        75.5810   45.9560    1.7500 C.3    14  GLN14       0.1733
     13  C         74.5420   47.0700    1.5840 C.2    14  GLN14       0.2616
     14  O         74.6140   48.1000    2.2630 O.2    14  GLN14      -0.2715
     15  CB        76.9960   46.5170    1.6200 C.3    14  GLN14       0.0408
     16  CG        78.1010   45.5580    2.0640 C.3    14  GLN14       0.0908
     17  CD        79.4540   46.2510    2.2290 C.2    14  GLN14       0.2608
     18  OE1       80.3010   45.8010    3.0040 O.2    14  GLN14      -0.2717
     19  NE2       79.6600   47.3540    1.5040 N.am   14  GLN14      -0.0878
     20  N         73.5770   46.8600    0.6930 N.am   15  GLY15      -0.1955
     21  CA        72.5600   47.8740    0.4020 C.3    15  GLY15       0.1869
     22  C         72.9020   48.8740   -0.7000 C.2    15  GLY15       0.2309
     23  O         74.0180   48.9400   -1.1850 O.2    15  GLY15      -0.2863
     24  N         71.9090   54.9180    2.7810 N.3    32  LEU32      -0.1245
     25  CA        71.2730   53.6560    2.4340 C.3    32  LEU32       0.1561
     26  C         69.8330   53.9600    2.1190 C.2    32  LEU32       0.2260
     27  O         69.1990   54.7010    2.8530 O.2    32  LEU32      -0.2867
     28  CB        71.3760   52.6760    3.6130 C.3    32  LEU32       0.0270
     29  CG        70.6380   51.3290    3.5370 C.3    32  LEU32       0.0019
     30  CD1       71.3670   50.3730    2.5850 C.3    32  LEU32       0.0001
     31  CD2       70.4340   50.7030    4.9470 C.3    32  LEU32       0.0001
     32  N         66.3350   52.6610    2.2520 N.3    34  ASP34      -0.1239
     33  CA        65.7320   51.5820    3.0400 C.3    34  ASP34       0.1674
     34  C         64.2120   51.7470    3.1710 C.2    34  ASP34       0.2266
     35  O         63.7190   52.5660    3.9600 O.2    34  ASP34      -0.2867
     36  CB        66.3940   51.5630    4.4110 C.3    34  ASP34       0.1410
     37  CG        65.7590   50.5920    5.3680 C.2    34  ASP34       0.3668
     38  OD1       65.0800   49.6490    4.9250 O.co2  34  ASP34      -0.2456
     39  OD2       65.9880   50.7590    6.5830 O.co2  34  ASP34      -0.2456
     40  N         62.2700   49.5190    4.4030 N.3    36  GLY36      -0.1210
     41  CA        61.8020   48.8030    5.6190 C.3    36  GLY36       0.1956
     42  C         61.9130   49.5820    6.9350 C.2    36  GLY36       0.2612
     43  O         61.7720   49.0110    8.0250 O.2    36  GLY36      -0.2717
     44  N         62.1850   50.8860    6.8520 N.am   37  SER37      -0.1952
     45  CA        62.2390   51.7280    8.0490 C.3    37  SER37       0.1924
     46  C         61.8560   53.1370    7.6690 C.2    37  SER37       0.2314
     47  O         61.7540   53.4580    6.4760 O.2    37  SER37      -0.2863
     48  CB        63.6200   51.6830    8.7070 C.3    37  SER37       0.2116
     49  OG        64.5970   52.3620    7.9500 O.3    37  SER37      -0.2180
     50  N         67.8320   46.8710   17.7220 N.3    73  TYR73      -0.1241
     51  CA        67.5750   45.6520   16.9880 C.3    73  TYR73       0.1605
     52  C         67.8730   44.4890   17.9240 C.2    73  TYR73       0.2264
     53  O         68.2270   44.7010   19.0870 O.2    73  TYR73      -0.2867
     54  CB        68.5010   45.5760   15.7820 C.3    73  TYR73       0.0534
     55  CG        68.5290   46.8360   14.9600 C.ar   73  TYR73      -0.0201
     56  CD1       69.5120   47.8070   15.1710 C.ar   73  TYR73      -0.0009
     57  CD2       67.5810   47.0560   13.9690 C.ar   73  TYR73      -0.0009
     58  CE1       69.5370   48.9740   14.4080 C.ar   73  TYR73       0.0417
     59  CE2       67.5930   48.2090   13.2110 C.ar   73  TYR73       0.0417
     60  CZ        68.5680   49.1600   13.4300 C.ar   73  TYR73       0.1957
     61  OH        68.5720   50.2950   12.6850 O.3    73  TYR73      -0.2866
     62  N         76.7170   47.7670   16.0800 N.3   109  LYS109     -0.1231
     63  CA        76.4120   46.7920   15.0380 C.3   109  LYS109      0.1693
     64  C         75.4630   47.3710   13.9920 C.2   109  LYS109      0.2592
     65  O         74.6240   46.6840   13.4380 O.2   109  LYS109     -0.2718
     66  CB        75.8860   45.4830   15.6690 C.3   109  LYS109      0.0285
     67  CG        77.0190   44.6820   16.3290 C.3   109  LYS109      0.0035
     68  CD        76.5320   43.4900   17.1410 C.3   109  LYS109      0.0206
     69  CE        77.7050   42.7270   17.7630 C.3   109  LYS109      0.1093
     70  NZ        77.2970   41.3570   18.1340 N.3   109  LYS109     -0.1314
     71  N         75.6340   48.6460   13.7030 N.am  110  PHE110     -0.1976
     72  CA        74.7810   49.3320   12.7730 C.3   110  PHE110      0.1639
     73  C         75.5350   49.5060   11.4420 C.2   110  PHE110      0.2290
     74  O         75.1570   48.9050   10.4100 O.2   110  PHE110     -0.2864
     75  CB        74.3600   50.6690   13.3810 C.3   110  PHE110      0.0560
     76  CG        73.4890   51.4930   12.4900 C.ar  110  PHE110     -0.0200
     77  CD1       72.1570   51.1760   12.3180 C.ar  110  PHE110     -0.0042
     78  CD2       74.0030   52.5920   11.8160 C.ar  110  PHE110     -0.0042
     79  CE1       71.3580   51.9350   11.4920 C.ar  110  PHE110     -0.0003
     80  CE2       73.1980   53.3490   10.9900 C.ar  110  PHE110     -0.0003
     81  CZ        71.8800   53.0260   10.8440 C.ar  110  PHE110     -0.0000
     82  N         78.4550   49.1180    8.6360 N.3   112  ILE112     -0.1245
     83  CA        79.1150   47.9400    8.0990 C.3   112  ILE112      0.1561
     84  C         80.5460   48.3100    7.7600 C.2   112  ILE112      0.2260
     85  O         80.7720   49.1910    6.9170 O.2   112  ILE112     -0.2867
     86  CB        78.4460   47.4570    6.7760 C.3   112  ILE112      0.0252
     87  CG1       77.0180   46.9360    6.9990 C.3   112  ILE112      0.0019
     88  CG2       79.3200   46.3780    6.1100 C.3   112  ILE112      0.0019
     89  CD1       76.1360   46.8830    5.6820 C.3   112  ILE112      0.0001
     90  N         78.5380   54.0100    2.8120 N.3   117  TRP117     -0.1241
     91  CA        77.4210   54.8540    3.2710 C.3   117  TRP117      0.1605
     92  C         77.4420   55.1010    4.7920 C.2   117  TRP117      0.2264
     93  O         77.9730   54.2960    5.5620 O.2   117  TRP117     -0.2867
     94  CB        76.0460   54.3240    2.8300 C.3   117  TRP117      0.0550
     95  CG        75.6820   52.9040    3.2820 C.ar  117  TRP117      0.0003
     96  CD1       75.7580   51.7750    2.5260 C.ar  117  TRP117      0.0946
     97  CD2       75.1620   52.4880    4.5640 C.ar  117  TRP117      0.0152
     98  NE1       75.3350   50.6920    3.2490 N.ar  117  TRP117     -0.2442
     99  CE2       74.9680   51.1000    4.5030 C.ar  117  TRP117      0.0810
    100  CE3       74.8600   53.1550    5.7610 C.ar  117  TRP117      0.0012
    101  CZ2       74.4630   50.3580    5.5850 C.ar  117  TRP117      0.0191
    102  CZ3       74.3660   52.4100    6.8440 C.ar  117  TRP117      0.0001
    103  CH2       74.1710   51.0290    6.7390 C.ar  117  TRP117      0.0015
    104  N         70.9630   56.3960    6.8480 N.3   120  ILE120     -0.1245
    105  CA        69.8660   55.5660    6.4310 C.3   120  ILE120      0.1561
    106  C         68.7390   56.4920    6.0890 C.2   120  ILE120      0.2260
    107  O         68.4550   57.3870    6.8760 O.2   120  ILE120     -0.2867
    108  CB        69.4670   54.5750    7.5540 C.3   120  ILE120      0.0252
    109  CG1       68.4090   53.6110    7.0550 C.3   120  ILE120      0.0019
    110  CG2       68.9810   55.2990    8.8290 C.3   120  ILE120      0.0019
    111  CD1       68.4600   52.3090    7.7770 C.3   120  ILE120      0.0001
    112  N         56.4570   42.1190    3.4980 N.3   215  ILE215     -0.1245
    113  CA        56.8880   43.4870    3.2010 C.3   215  ILE215      0.1561
    114  C         57.8660   43.5430    2.0060 C.2   215  ILE215      0.2260
    115  O         58.5190   42.5460    1.6850 O.2   215  ILE215     -0.2867
    116  CB        57.5050   44.1890    4.4550 C.3   215  ILE215      0.0252
    117  CG1       58.8370   43.5680    4.8880 C.3   215  ILE215      0.0019
    118  CG2       56.5270   44.1790    5.6550 C.3   215  ILE215      0.0019
    119  CD1       59.4390   44.2760    6.1030 C.3   215  ILE215      0.0001
    120  N         61.2730   45.2290    1.0490 N.3   217  ASP217     -0.1225
    121  CA        62.3140   45.8060    1.9180 C.3   217  ASP217      0.1805
    122  C         63.6950   45.8760    1.2720 C.2   217  ASP217      0.2598
    123  O         64.4390   44.8870    1.2690 O.2   217  ASP217     -0.2718
    124  CB        62.3840   45.0070    3.2150 C.3   217  ASP217      0.1424
    125  CG        63.4230   45.5410    4.1910 C.2   217  ASP217      0.3668
    126  OD1       63.8970   46.6940    4.0550 O.co2 217  ASP217     -0.2456
    127  OD2       63.7770   44.7730    5.0940 O.co2 217  ASP217     -0.2456
    128  N         64.0470   47.0650    0.7760 N.am  218  SER218     -0.1938
    129  CA        65.3240   47.2810    0.1210 C.3   218  SER218      0.2055
    130  C         66.4630   47.2670    1.1200 C.2   218  SER218      0.2644
    131  O         67.6210   47.3040    0.7160 O.2   218  SER218     -0.2714
    132  CB        65.3440   48.6180   -0.6300 C.3   218  SER218      0.2130
    133  OG        65.2850   49.7090    0.2710 O.3   218  SER218     -0.2179
    134  N         66.1370   47.2390    2.4170 N.am  219  GLY219     -0.1939
    135  CA        67.1440   47.1340    3.4790 C.3   219  GLY219      0.2014
    136  C         67.4290   45.7190    3.9780 C.2   219  GLY219      0.2640
    137  O         67.9660   45.5540    5.0760 O.2   219  GLY219     -0.2714
    138  N         67.0650   44.7210    3.1720 N.am  220  THR220     -0.1936
    139  CA        67.2730   43.2780    3.4360 C.3   220  THR220      0.2028
    140  C         67.7970   42.6840    2.1270 C.2   220  THR220      0.2642
    141  O         67.2530   42.9750    1.0470 O.2   220  THR220     -0.2714
    142  CB        65.9390   42.5590    3.7690 C.3   220  THR220      0.1808
    143  OG1       65.5170   42.8800    5.0930 O.3   220  THR220     -0.2208
    144  CG2       66.0540   41.0620    3.6440 C.3   220  THR220      0.0379
    145  N         68.8390   41.8630    2.2150 N.am  221  THR221     -0.1950
    146  CA        69.4210   41.2300    1.0330 C.3   221  THR221      0.1897
    147  C         68.5240   40.1320    0.4550 C.2   221  THR221      0.2313
    148  O         68.2790   40.0890   -0.7320 O.2   221  THR221     -0.2863
    149  CB        70.8460   40.6560    1.3520 C.3   221  THR221      0.1794
    150  OG1       71.7180   41.7420    1.7110 O.3   221  THR221     -0.2208
    151  CG2       71.4380   39.9030    0.1540 C.3   221  THR221      0.0378
    152  N         63.1390   36.3900    2.2210 N.3   224  ARG224     -0.1245
    153  CA        63.0130   35.7230    3.5000 C.3   224  ARG224      0.1563
    154  C         61.5920   35.2340    3.5800 C.2   224  ARG224      0.2260
    155  O         60.6890   36.0230    3.3770 O.2   224  ARG224     -0.2867
    156  CB        63.3200   36.6810    4.6480 C.3   224  ARG224      0.0307
    157  CG        64.6730   37.3550    4.5530 C.3   224  ARG224      0.0489
    158  CD        64.9700   38.1320    5.8300 C.3   224  ARG224      0.2205
    159  NE        65.4220   37.2480    6.8990 N.pl3 224  ARG224     -0.0865
    160  CZ        65.2110   37.4260    8.2060 C.cat 224  ARG224      0.5346
    161  NH1       64.5230   38.4550    8.6750 N.pl3 224  ARG224      0.1354
    162  NH2       65.6770   36.5370    9.0700 N.pl3 224  ARG224      0.1354
    163  N         66.3610   42.6510   -1.5410 N.3   324  ALA324     -0.1245
    164  CA        66.9990   43.2250   -2.7270 C.3   324  ALA324      0.1562
    165  C         67.1520   42.1520   -3.7590 C.2   324  ALA324      0.2260
    166  O         67.0080   42.3930   -4.9350 O.2   324  ALA324     -0.2867
    167  CB        68.3930   43.8690   -2.3790 C.3   324  ALA324      0.0290
@<TRIPOS>BOND
     1   166   165    2
     2   165   164    1
     3     1     2    1
     4     6     5    1
     5     5     2    1
     6   164   167    1
     7   164   163    1
     8     2     3    1
     9    23    22    2
    10     7     3   am
    11     7     8    1
    12     3     4    2
    13   148   147    2
    14    22    21    1
    15   132   129    1
    16   132   133    1
    17     8     9    1
    18   129   128    1
    19   129   130    1
    20   151   149    1
    21    21    20    1
    22   147   146    1
    23    20    13   am
    24   131   130    2
    25   128   122   am
    26    11     9   am
    27    11    12    1
    28   146   149    1
    29   146   145    1
    30   141   140    2
    31   120   121    1
    32   130   134   am
    33     9    10    2
    34   123   122    2
    35   122   121    1
    36   149   150    1
    37    19    17   am
    38    13    12    1
    39    13    14    2
    40    15    12    1
    41    15    16    1
    42   115   114    2
    43   121   124    1
    44   114   113    1
    45    16    17    1
    46    26    25    1
    47    26    27    2
    48   140   145   am
    49   140   139    1
    50   152   153    1
    51    17    18    2
    52    32    33    1
    53   134   135    1
    54    25    24    1
    55    25    28    1
    56    96    98   ar
    57    96    95   ar
    58    30    29    1
    59    90    91    1
    60    94    91    1
    61    94    95    1
    62    33    34    1
    63    33    36    1
    64    34    35    2
    65   138   139    1
    66   138   136   am
    67   113   112    1
    68   113   116    1
    69   124   125    1
    70    98    99   ar
    71    91    92    1
    72    95    97   ar
    73   155   154    2
    74   139   142    1
    75   135   136    1
    76   153   154    1
    77   153   156    1
    78    29    28    1
    79    29    31    1
    80   144   142    1
    81   142   143    1
    82   136   137    2
    83   126   125   ar
    84   125   127   ar
    85    40    41    1
    86    36    37    1
    87   116   117    1
    88   116   118    1
    89    99    97   ar
    90    99   101   ar
    91   157   156    1
    92   157   158    1
    93    97   100   ar
    94    92    93    2
    95   117   119    1
    96    38    37   ar
    97    37    39   ar
    98   101   103   ar
    99    41    42    1
   100    89    87    1
   101   100   102   ar
   102   158   159    1
   103   106   105    1
   104   106   107    2
   105    88    86    1
   106   105   104    1
   107   105   108    1
   108    47    46    2
   109   103   102   ar
   110    86    87    1
   111    86    83    1
   112    44    42   am
   113    44    45    1
   114   159   160    2
   115    85    84    2
   116    42    43    2
   117   109   108    1
   118   109   111    1
   119   108   110    1
   120    46    45    1
   121    84    83    1
   122    49    48    1
   123    45    48    1
   124    83    82    1
   125   160   161    1
   126   160   162    1
   127    74    73    2
   128    81    80   ar
   129    81    79   ar
   130    80    78   ar
   131    73    72    1
   132    79    77   ar
   133    78    76   ar
   134    77    76   ar
   135    76    75    1
   136    61    60    1
   137    72    75    1
   138    72    71    1
   139    59    60   ar
   140    59    57   ar
   141    60    58   ar
   142    65    64    2
   143    71    64   am
   144    57    55   ar
   145    64    63    1
   146    58    56   ar
   147    55    56   ar
   148    55    54    1
   149    63    66    1
   150    63    62    1
   151    66    67    1
   152    54    51    1
   153    67    68    1
   154    51    50    1
   155    51    52    1
   156    68    69    1
   157    69    70    1
   158    52    53    2
