@<TRIPOS>MOLECULE
tmp/2ohtA00.pdb
 172 164 0 0 0
SMALL
GASTEIGER

@<TRIPOS>ATOM
      1  N         76.2580   43.1570   -0.6980 N.3    13  GLY13      -0.1210
      2  CA        75.8970   42.9520    0.7100 C.3    13  GLY13       0.1956
      3  C         76.0100   44.1750    1.6200 C.2    13  GLY13       0.2612
      4  O         75.4760   44.1620    2.7290 O.2    13  GLY13      -0.2717
      5  N         76.6900   45.2280    1.1620 N.am   14  GLN14      -0.1965
      6  CA        76.8380   46.4620    1.9380 C.3    14  GLN14       0.1733
      7  C         75.8260   47.5570    1.5380 C.2    14  GLN14       0.2616
      8  O         76.0470   48.7120    1.8350 O.2    14  GLN14      -0.2715
      9  CB        78.2810   47.0120    1.8040 C.3    14  GLN14       0.0408
     10  CG        79.4000   46.1250    2.3850 C.3    14  GLN14       0.0908
     11  CD        80.7950   46.7660    2.2790 C.2    14  GLN14       0.2608
     12  OE1       81.7950   46.1900    2.7080 O.2    14  GLN14      -0.2717
     13  NE2       80.8610   47.9570    1.7120 N.am   14  GLN14      -0.0878
     14  N         74.7320   47.1990    0.8560 N.am   15  GLY15      -0.1955
     15  CA        73.6690   48.1600    0.4890 C.3    15  GLY15       0.1869
     16  C         73.9780   49.0820   -0.6890 C.2    15  GLY15       0.2309
     17  O         75.0900   49.0790   -1.2230 O.2    15  GLY15      -0.2863
     18  N         73.2830   55.6520    2.3460 N.3    32  LEU32      -0.1245
     19  CA        72.5460   54.4160    2.1080 C.3    32  LEU32       0.1561
     20  C         71.0630   54.7040    1.8290 C.2    32  LEU32       0.2260
     21  O         70.4090   55.4120    2.5860 O.2    32  LEU32      -0.2867
     22  CB        72.6800   53.5130    3.3340 C.3    32  LEU32       0.0270
     23  CG        72.0920   52.1070    3.2750 C.3    32  LEU32       0.0019
     24  CD1       72.9840   51.2250    2.3850 C.3    32  LEU32       0.0001
     25  CD2       71.9300   51.4920    4.6840 C.3    32  LEU32       0.0001
     26  N         67.3530   53.6250    1.8750 N.3    34  ASP34      -0.1239
     27  CA        66.6430   52.6610    2.7070 C.3    34  ASP34       0.1674
     28  C         65.1390   52.8770    2.7440 C.2    34  ASP34       0.2266
     29  O         64.6400   53.7640    3.4560 O.2    34  ASP34      -0.2867
     30  CB        67.2230   52.6720    4.1400 C.3    34  ASP34       0.1410
     31  CG        66.5910   51.6090    5.0590 C.2    34  ASP34       0.3668
     32  OD1       65.9390   50.6670    4.5400 O.co2  34  ASP34      -0.2456
     33  OD2       66.7590   51.7200    6.2970 O.co2  34  ASP34      -0.2456
     34  N         63.1170   50.9220    4.1300 N.3    36  GLY36      -0.1210
     35  CA        62.5910   50.3150    5.3660 C.3    36  GLY36       0.1956
     36  C         62.7530   51.1260    6.6550 C.2    36  GLY36       0.2612
     37  O         62.5170   50.6100    7.7530 O.2    36  GLY36      -0.2717
     38  N         63.1380   52.3860    6.5240 N.am   37  SER37      -0.1952
     39  CA        63.2530   53.2810    7.6580 C.3    37  SER37       0.1924
     40  C         62.9110   54.6850    7.2060 C.2    37  SER37       0.2314
     41  O         62.8090   54.9360    6.0030 O.2    37  SER37      -0.2863
     42  CB        64.6660   53.2140    8.2300 C.3    37  SER37       0.2116
     43  OG        65.6400   53.6240    7.2910 O.3    37  SER37      -0.2180
     44  N         68.5080   55.2870   18.5780 N.3    71  VAL71      -0.1245
     45  CA        67.9170   54.2690   17.7120 C.3    71  VAL71       0.1561
     46  C         68.5710   52.8970   17.9200 C.2    71  VAL71       0.2260
     47  O         69.5620   52.5700   17.2690 O.2    71  VAL71      -0.2867
     48  CB        68.0370   54.7100   16.2400 C.3    71  VAL71       0.0252
     49  CG1       67.2690   53.7790   15.3430 C.3    71  VAL71       0.0019
     50  CG2       67.5300   56.1550   16.0990 C.3    71  VAL71       0.0019
     51  N         68.7490   48.6590   17.8970 N.3    73  TYR73      -0.1241
     52  CA        68.3040   47.5350   17.0760 C.3    73  TYR73       0.1605
     53  C         69.0440   46.2920   17.5780 C.2    73  TYR73       0.2264
     54  O         69.7200   46.3710   18.6000 O.2    73  TYR73      -0.2867
     55  CB        68.5590   47.8200   15.5950 C.3    73  TYR73       0.0534
     56  CG        69.9660   48.2740   15.2870 C.ar   73  TYR73      -0.0201
     57  CD1       71.0000   47.3480   15.1270 C.ar   73  TYR73      -0.0009
     58  CD2       70.2630   49.6320   15.1470 C.ar   73  TYR73      -0.0009
     59  CE1       72.2930   47.7630   14.8340 C.ar   73  TYR73       0.0417
     60  CE2       71.5490   50.0590   14.8590 C.ar   73  TYR73       0.0417
     61  CZ        72.5590   49.1190   14.7030 C.ar   73  TYR73       0.1957
     62  OH        73.8300   49.5380   14.4130 O.3    73  TYR73      -0.2866
     63  N         72.4420   53.4560   16.8050 N.3    78  TRP78      -0.1241
     64  CA        73.0630   54.7540   16.6790 C.3    78  TRP78       0.1605
     65  C         72.2620   55.7640   17.4720 C.2    78  TRP78       0.2264
     66  O         71.0750   55.5790   17.7250 O.2    78  TRP78      -0.2867
     67  CB        73.2110   55.1910   15.2290 C.3    78  TRP78       0.0550
     68  CG        71.9360   55.2940   14.4810 C.ar   78  TRP78       0.0003
     69  CD1       71.3670   54.3360   13.7300 C.ar   78  TRP78       0.0946
     70  CD2       71.0840   56.4460   14.3920 C.ar   78  TRP78       0.0152
     71  NE1       70.1960   54.8020   13.1730 N.ar   78  TRP78      -0.2442
     72  CE2       70.0010   56.0990   13.5650 C.ar   78  TRP78       0.0810
     73  CE3       71.1310   57.7340   14.9380 C.ar   78  TRP78       0.0012
     74  CZ2       68.9600   56.9880   13.2730 C.ar   78  TRP78       0.0191
     75  CZ3       70.0980   58.6260   14.6390 C.ar   78  TRP78       0.0001
     76  CH2       69.0280   58.2450   13.8160 C.ar   78  TRP78       0.0015
     77  N         77.9200   48.7920   15.8780 N.3   109  LYS109     -0.1231
     78  CA        77.5940   47.8510   14.8010 C.3   109  LYS109      0.1693
     79  C         76.6430   48.4500   13.7590 C.2   109  LYS109      0.2592
     80  O         75.8090   47.7400   13.2080 O.2   109  LYS109     -0.2718
     81  CB        77.0680   46.5110   15.3640 C.3   109  LYS109      0.0285
     82  CG        78.1180   45.8040   16.2450 C.3   109  LYS109      0.0035
     83  CD        77.7340   44.4100   16.7710 C.3   109  LYS109      0.0206
     84  CE        78.9490   43.7890   17.5280 C.3   109  LYS109      0.1093
     85  NZ        78.8270   42.3320   17.9050 N.3   109  LYS109     -0.1314
     86  N         76.8030   49.7440   13.4680 N.am  110  PHE110     -0.1976
     87  CA        76.0110   50.4040   12.4290 C.3   110  PHE110      0.1639
     88  C         76.8120   50.5530   11.1430 C.2   110  PHE110      0.2290
     89  O         76.4590   49.9690   10.1300 O.2   110  PHE110     -0.2864
     90  CB        75.4970   51.7640   12.8940 C.3   110  PHE110      0.0560
     91  CG        74.6170   52.4470   11.8840 C.ar  110  PHE110     -0.0200
     92  CD1       73.3680   51.9480   11.5900 C.ar  110  PHE110     -0.0042
     93  CD2       75.0410   53.5760   11.2230 C.ar  110  PHE110     -0.0042
     94  CE1       72.5570   52.5710   10.6610 C.ar  110  PHE110     -0.0003
     95  CE2       74.2370   54.1900   10.2860 C.ar  110  PHE110     -0.0003
     96  CZ        72.9960   53.6870   10.0130 C.ar  110  PHE110     -0.0000
     97  N         79.9380   50.0460    8.5360 N.3   112  ILE112     -0.1245
     98  CA        80.6380   48.8470    8.1020 C.3   112  ILE112      0.1561
     99  C         82.0760   49.2110    7.7890 C.2   112  ILE112      0.2260
    100  O         82.3510   50.1040    6.9820 O.2   112  ILE112     -0.2867
    101  CB        79.9690   48.2140    6.8390 C.3   112  ILE112      0.0252
    102  CG1       78.5730   47.7010    7.1640 C.3   112  ILE112      0.0019
    103  CG2       80.8380   47.0460    6.2460 C.3   112  ILE112      0.0019
    104  CD1       77.7250   47.4380    5.9020 C.3   112  ILE112      0.0001
    105  N         79.9850   54.4300    2.4750 N.3   117  TRP117     -0.1241
    106  CA        78.9250   55.3440    2.9010 C.3   117  TRP117      0.1605
    107  C         78.9630   55.7090    4.3990 C.2   117  TRP117      0.2264
    108  O         79.4830   54.9600    5.2340 O.2   117  TRP117     -0.2867
    109  CB        77.5600   54.7820    2.5090 C.3   117  TRP117      0.0550
    110  CG        77.2600   53.4390    3.0890 C.ar  117  TRP117      0.0003
    111  CD1       77.3700   52.2410    2.4590 C.ar  117  TRP117      0.0946
    112  CD2       76.7870   53.1560    4.4030 C.ar  117  TRP117      0.0152
    113  NE1       76.9940   51.2260    3.2960 N.ar  117  TRP117     -0.2442
    114  CE2       76.6270   51.7600    4.4960 C.ar  117  TRP117      0.0810
    115  CE3       76.4680   53.9430    5.5080 C.ar  117  TRP117      0.0012
    116  CZ2       76.1670   51.1370    5.6510 C.ar  117  TRP117      0.0191
    117  CZ3       76.0320   53.3290    6.6500 C.ar  117  TRP117      0.0001
    118  CH2       75.8810   51.9390    6.7160 C.ar  117  TRP117      0.0015
    119  N         72.4580   57.3110    6.2870 N.3   120  ILE120     -0.1245
    120  CA        71.3110   56.5460    5.8310 C.3   120  ILE120      0.1561
    121  C         70.1460   57.4880    5.4780 C.2   120  ILE120      0.2260
    122  O         69.9190   58.4840    6.1520 O.2   120  ILE120     -0.2867
    123  CB        70.9050   55.5370    6.9000 C.3   120  ILE120      0.0252
    124  CG1       69.6960   54.7020    6.4450 C.3   120  ILE120      0.0019
    125  CG2       70.6210   56.2470    8.2660 C.3   120  ILE120      0.0019
    126  CD1       69.5940   53.3210    7.1950 C.3   120  ILE120      0.0001
    127  N         55.8130   51.4700    7.0900 N.3   190  TYR190     -0.1241
    128  CA        56.6530   50.8070    6.1240 C.3   190  TYR190      0.1605
    129  C         55.9470   50.8350    4.7530 C.2   190  TYR190      0.2264
    130  O         54.7970   51.2510    4.6400 O.2   190  TYR190     -0.2867
    131  CB        56.8650   49.3580    6.5210 C.3   190  TYR190      0.0534
    132  CG        57.5740   49.1610    7.8550 C.ar  190  TYR190     -0.0201
    133  CD1       58.9640   49.0720    7.9230 C.ar  190  TYR190     -0.0009
    134  CD2       56.8490   49.0530    9.0460 C.ar  190  TYR190     -0.0009
    135  CE1       59.6190   48.8910    9.1500 C.ar  190  TYR190      0.0417
    136  CE2       57.4910   48.8530   10.2770 C.ar  190  TYR190      0.0417
    137  CZ        58.8720   48.7740   10.3170 C.ar  190  TYR190      0.1957
    138  OH        59.5090   48.5940   11.5160 O.3   190  TYR190     -0.2866
    139  N         56.8020   43.7010    3.5860 N.3   218  ILE218     -0.1245
    140  CA        57.3200   45.0130    3.2640 C.3   218  ILE218      0.1561
    141  C         58.3710   44.9280    2.1950 C.2   218  ILE218      0.2260
    142  O         58.9680   43.8750    1.9730 O.2   218  ILE218     -0.2867
    143  CB        57.8970   45.7710    4.5200 C.3   218  ILE218      0.0252
    144  CG1       59.2250   45.1560    5.0110 C.3   218  ILE218      0.0019
    145  CG2       56.9020   45.7920    5.6200 C.3   218  ILE218      0.0019
    146  CD1       59.9310   45.9890    6.0740 C.3   218  ILE218      0.0001
    147  N         61.9140   46.6240    1.0660 N.3   220  ASP220     -0.1239
    148  CA        62.9740   47.1640    1.9220 C.3   220  ASP220      0.1674
    149  C         64.3260   47.0310    1.2660 C.2   220  ASP220      0.2266
    150  O         64.9250   45.9650    1.2800 O.2   220  ASP220     -0.2867
    151  CB        62.9700   46.4270    3.2500 C.3   220  ASP220      0.1410
    152  CG        63.9450   47.0180    4.2570 C.2   220  ASP220      0.3668
    153  OD1       64.4850   48.1240    3.9960 O.co2 220  ASP220     -0.2456
    154  OD2       64.1480   46.3510    5.3040 O.co2 220  ASP220     -0.2456
    155  N         67.0700   48.2710    2.2290 N.3   222  GLY222     -0.1210
    156  CA        68.1590   48.1890    3.1820 C.3   222  GLY222      0.1956
    157  C         68.3840   46.7970    3.7600 C.2   222  GLY222      0.2613
    158  O         69.2980   46.6060    4.5540 O.2   222  GLY222     -0.2717
    159  N         67.5290   45.8390    3.3980 N.am  223  THR223     -0.1938
    160  CA        67.7390   44.4170    3.7260 C.3   223  THR223      0.2028
    161  C         68.2570   43.6920    2.4860 C.2   223  THR223      0.2642
    162  O         67.7900   43.9430    1.3800 O.2   223  THR223     -0.2714
    163  CB        66.4330   43.7750    4.1860 C.3   223  THR223      0.1808
    164  OG1       66.0020   44.3880    5.4150 O.3   223  THR223     -0.2208
    165  CG2       66.6020   42.2810    4.3790 C.3   223  THR223      0.0379
    166  N         69.2410   42.8180    2.6520 N.am  224  THR224     -0.1950
    167  CA        69.7420   42.0330    1.5180 C.3   224  THR224      0.1897
    168  C         68.8150   40.8710    1.1620 C.2   224  THR224      0.2313
    169  O         68.5760   40.6060   -0.0160 O.2   224  THR224     -0.2863
    170  CB        71.1730   41.4830    1.7720 C.3   224  THR224      0.1794
    171  OG1       72.0430   42.5700    2.0780 O.3   224  THR224     -0.2208
    172  CG2       71.7260   40.7470    0.5240 C.3   224  THR224      0.0378
@<TRIPOS>BOND
     1    17    16    2
     2     1     2    1
     3    16    15    1
     4   169   168    2
     5    15    14    1
     6   172   170    1
     7     2     3    1
     8    14     7   am
     9   147   148    1
    10   168   167    1
    11     5     3   am
    12     5     6    1
    13   149   150    2
    14   149   148    1
    15   162   161    2
    16   167   170    1
    17   167   166    1
    18     7     8    2
    19     7     6    1
    20     3     4    2
    21    13    11   am
    22   170   171    1
    23     9     6    1
    24     9    10    1
    25    20    19    1
    26    20    21    2
    27    26    27    1
    28   148   151    1
    29   142   141    2
    30    19    18    1
    31    19    22    1
    32   141   140    1
    33   155   156    1
    34    11    10    1
    35    11    12    2
    36    24    23    1
    37   111   110   ar
    38   111   113   ar
    39   105   106    1
    40   161   166   am
    41   161   160    1
    42   109   106    1
    43   109   110    1
    44    27    28    1
    45    27    30    1
    46    28    29    2
    47   106   107    1
    48   110   112   ar
    49   156   157    1
    50   151   152    1
    51   140   139    1
    52   140   143    1
    53    23    22    1
    54    23    25    1
    55   113   114   ar
    56   159   160    1
    57   159   157   am
    58   160   163    1
    59   157   158    2
    60   153   152   ar
    61    34    35    1
    62    30    31    1
    63   163   165    1
    64   163   164    1
    65   152   154   ar
    66   107   108    2
    67   112   114   ar
    68   112   115   ar
    69   114   116   ar
    70   143   144    1
    71   143   145    1
    72    32    31   ar
    73   130   129    2
    74   129   128    1
    75   144   146    1
    76    31    33   ar
    77    35    36    1
    78   121   120    1
    79   121   122    2
    80   115   117   ar
    81   116   118   ar
    82   120   119    1
    83   120   123    1
    84   104   102    1
    85    41    40    2
    86   128   131    1
    87   128   127    1
    88   103   101    1
    89   124   123    1
    90   124   126    1
    91   131   132    1
    92    38    36   am
    93    38    39    1
    94   117   118   ar
    95    36    37    2
    96   101   102    1
    97   101    98    1
    98   123   125    1
    99   100    99    2
   100    40    39    1
   101    43    42    1
   102    39    42    1
   103    99    98    1
   104   132   133   ar
   105   132   134   ar
   106   133   135   ar
   107    98    97    1
   108   134   136   ar
   109   135   137   ar
   110    96    95   ar
   111    96    94   ar
   112    89    88    2
   113   136   137   ar
   114    95    93   ar
   115   137   138    1
   116    94    92   ar
   117    88    87    1
   118    93    91   ar
   119    92    91   ar
   120    91    90    1
   121    87    90    1
   122    87    86    1
   123    71    72   ar
   124    71    69   ar
   125    80    79    2
   126    74    72   ar
   127    74    76   ar
   128    86    79   am
   129    72    70   ar
   130    69    68   ar
   131    79    78    1
   132    76    75   ar
   133    70    68   ar
   134    70    73   ar
   135    62    61    1
   136    68    67    1
   137    75    73   ar
   138    61    59   ar
   139    61    60   ar
   140    78    81    1
   141    78    77    1
   142    59    57   ar
   143    60    58   ar
   144    57    56   ar
   145    58    56   ar
   146    67    64    1
   147    56    55    1
   148    49    48    1
   149    81    82    1
   150    55    52    1
   151    50    48    1
   152    48    45    1
   153    82    83    1
   154    64    63    1
   155    64    65    1
   156    83    84    1
   157    52    53    1
   158    52    51    1
   159    47    46    2
   160    65    66    2
   161    84    85    1
   162    53    54    2
   163    45    46    1
   164    45    44    1
