@<TRIPOS>MOLECULE
tmp/2ohuA00.pdb
 230 220 0 0 0
SMALL
GASTEIGER

@<TRIPOS>ATOM
      1  N         76.2960   42.4860   -0.4720 N.3    13  GLY13      -0.1210
      2  CA        75.8940   42.3940    0.9280 C.3    13  GLY13       0.1956
      3  C         76.0290   43.6780    1.7250 C.2    13  GLY13       0.2612
      4  O         75.6620   43.6860    2.8900 O.2    13  GLY13      -0.2717
      5  N         76.5340   44.7610    1.1160 N.am   14  GLN14      -0.1965
      6  CA        76.7950   46.0230    1.8380 C.3    14  GLN14       0.1733
      7  C         75.8700   47.1640    1.3910 C.2    14  GLN14       0.2616
      8  O         76.1180   48.3420    1.7240 O.2    14  GLN14      -0.2715
      9  CB        78.2570   46.4480    1.6570 C.3    14  GLN14       0.0408
     10  CG        79.2460   45.4780    2.2980 C.3    14  GLN14       0.0908
     11  CD        80.6700   46.0150    2.4590 C.2    14  GLN14       0.2608
     12  OE1       81.4780   45.3930    3.1380 O.2    14  GLN14      -0.2717
     13  NE2       80.9850   47.1480    1.8310 N.am   14  GLN14      -0.0878
     14  N         74.8260   46.8180    0.6250 N.am   15  GLY15      -0.1955
     15  CA        73.8480   47.7780    0.1360 C.3    15  GLY15       0.1869
     16  C         74.2810   48.6900   -0.9980 C.2    15  GLY15       0.2309
     17  O         75.4100   48.6690   -1.4310 O.2    15  GLY15      -0.2863
     18  N         73.6000   55.2830    1.8520 N.3    32  LEU32      -0.1245
     19  CA        72.8770   54.0360    1.6580 C.3    32  LEU32       0.1561
     20  C         71.4100   54.3340    1.3070 C.2    32  LEU32       0.2260
     21  O         70.7450   55.1410    1.9770 O.2    32  LEU32      -0.2867
     22  CB        72.9600   53.1880    2.9110 C.3    32  LEU32       0.0270
     23  CG        72.2460   51.8340    2.8650 C.3    32  LEU32       0.0019
     24  CD1       73.1500   50.7980    2.2130 C.3    32  LEU32       0.0001
     25  CD2       71.8320   51.3760    4.2630 C.3    32  LEU32       0.0001
     26  N         67.7810   53.2160    1.3810 N.3    34  ASP34      -0.1239
     27  CA        66.9900   52.3110    2.2240 C.3    34  ASP34       0.1674
     28  C         65.4850   52.5970    2.2080 C.2    34  ASP34       0.2266
     29  O         65.0010   53.5480    2.8470 O.2    34  ASP34      -0.2867
     30  CB        67.4990   52.4200    3.6740 C.3    34  ASP34       0.1410
     31  CG        66.8510   51.4170    4.5990 C.2    34  ASP34       0.3668
     32  OD1       66.2600   50.4380    4.1020 O.co2  34  ASP34      -0.2456
     33  OD2       66.9400   51.6090    5.8310 O.co2  34  ASP34      -0.2456
     34  N         63.3810   50.6200    3.6400 N.3    36  GLY36      -0.1210
     35  CA        62.8490   50.0330    4.8740 C.3    36  GLY36       0.1956
     36  C         62.9880   50.8990    6.1290 C.2    36  GLY36       0.2613
     37  O         62.7490   50.4360    7.2390 O.2    36  GLY36      -0.2717
     38  N         63.3630   52.1560    5.9550 N.am   37  SER37      -0.1938
     39  CA        63.4210   53.1160    7.0410 C.3    37  SER37       0.2055
     40  C         63.1430   54.4960    6.4470 C.2    37  SER37       0.2644
     41  O         63.0690   54.6360    5.2210 O.2    37  SER37      -0.2714
     42  CB        64.7870   53.0620    7.7730 C.3    37  SER37       0.2130
     43  OG        65.8670   53.6330    7.0320 O.3    37  SER37      -0.2179
     44  N         63.0060   55.4910    7.3230 N.am   38  SER38      -0.1935
     45  CA        62.5310   56.8170    6.9680 C.3    38  SER38       0.2055
     46  C         63.3580   57.9850    7.5540 C.2    38  SER38       0.2643
     47  O         62.9160   59.1090    7.5230 O.2    38  SER38      -0.2714
     48  CB        61.0830   56.9750    7.4280 C.3    38  SER38       0.2130
     49  OG        60.3230   55.8190    7.1450 O.3    38  SER38      -0.2179
     50  N         64.5590   57.7260    8.0610 N.am   39  ASN39      -0.1971
     51  CA        65.4500   58.8040    8.5130 C.3    39  ASN39       0.1688
     52  C         66.5690   59.0750    7.5220 C.2    39  ASN39       0.2292
     53  O         67.1460   58.1570    6.9320 O.2    39  ASN39      -0.2864
     54  CB        66.0460   58.4550    9.8810 C.3    39  ASN39       0.1181
     55  CG        65.1340   58.8430   11.0370 C.2    39  ASN39       0.2629
     56  OD1       64.3480   58.0290   11.5060 O.2    39  ASN39      -0.2716
     57  ND2       65.2440   60.0970   11.5010 N.am   39  ASN39      -0.0877
     58  N         68.6610   55.5920   18.4650 N.3    71  VAL71      -0.1231
     59  CA        68.0930   54.5610   17.5990 C.3    71  VAL71       0.1678
     60  C         68.6950   53.1670   17.8550 C.2    71  VAL71       0.2434
     61  O         69.6460   52.7390   17.1800 O.2    71  VAL71      -0.2733
     62  CB        68.2170   54.9650   16.1250 C.3    71  VAL71       0.0265
     63  CG1       67.5070   53.9490   15.2290 C.3    71  VAL71       0.0020
     64  CG2       67.6550   56.4010   15.9280 C.3    71  VAL71       0.0020
     65  N         68.1290   52.4470   18.8350 N.am   72  PRO72      -0.2718
     66  CA        68.6010   51.1180   19.1460 C.3    72  PRO72       0.1535
     67  C         68.0510   50.0690   18.1830 C.2    72  PRO72       0.2598
     68  O         66.9740   50.2470   17.6200 O.2    72  PRO72      -0.2715
     69  CB        68.0770   50.9030   20.5670 C.3    72  PRO72       0.0310
     70  CG        66.8450   51.7000   20.6330 C.3    72  PRO72       0.0237
     71  CD        67.0050   52.8400   19.7040 C.3    72  PRO72       0.0939
     72  N         68.8360   49.0200   17.9630 N.am   73  TYR73      -0.1974
     73  CA        68.3800   47.7890   17.3030 C.3    73  TYR73       0.1639
     74  C         69.0190   46.6020   18.0390 C.2    73  TYR73       0.2290
     75  O         69.7740   46.8070   18.9970 O.2    73  TYR73      -0.2864
     76  CB        68.6850   47.7880   15.7940 C.3    73  TYR73       0.0560
     77  CG        70.0370   48.3160   15.3980 C.ar   73  TYR73      -0.0198
     78  CD1       71.0990   47.4500   15.1650 C.ar   73  TYR73      -0.0009
     79  CD2       70.2500   49.6870   15.2320 C.ar   73  TYR73      -0.0009
     80  CE1       72.3570   47.9370   14.8010 C.ar   73  TYR73       0.0417
     81  CE2       71.4980   50.1850   14.8620 C.ar   73  TYR73       0.0417
     82  CZ        72.5460   49.3050   14.6530 C.ar   73  TYR73       0.1957
     83  OH        73.7820   49.7790   14.2860 O.3    73  TYR73      -0.2866
     84  N         72.5620   53.5970   16.7000 N.3    78  TRP78      -0.1241
     85  CA        73.1790   54.8750   16.4450 C.3    78  TRP78       0.1605
     86  C         72.3960   55.9340   17.1660 C.2    78  TRP78       0.2264
     87  O         71.2250   55.7490   17.4750 O.2    78  TRP78      -0.2867
     88  CB        73.3520   55.1880   14.9480 C.3    78  TRP78       0.0550
     89  CG        72.1070   55.2930   14.1200 C.ar   78  TRP78       0.0003
     90  CD1       71.5480   54.3090   13.3550 C.ar   78  TRP78       0.0946
     91  CD2       71.2990   56.4550   13.9240 C.ar   78  TRP78       0.0152
     92  NE1       70.4350   54.7770   12.7200 N.ar   78  TRP78      -0.2442
     93  CE2       70.2580   56.0940   13.0420 C.ar   78  TRP78       0.0810
     94  CE3       71.3450   57.7630   14.4160 C.ar   78  TRP78       0.0012
     95  CZ2       69.2680   56.9950   12.6430 C.ar   78  TRP78       0.0191
     96  CZ3       70.3760   58.6590   14.0060 C.ar   78  TRP78       0.0001
     97  CH2       69.3410   58.2700   13.1350 C.ar   78  TRP78       0.0015
     98  N         77.9430   48.8640   15.6780 N.3   109  LYS109     -0.1231
     99  CA        77.6390   47.9360   14.5910 C.3   109  LYS109      0.1693
    100  C         76.6220   48.5000   13.5780 C.2   109  LYS109      0.2592
    101  O         75.7020   47.8040   13.1340 O.2   109  LYS109     -0.2718
    102  CB        77.1930   46.5910   15.1800 C.3   109  LYS109      0.0285
    103  CG        78.3310   45.9090   15.9570 C.3   109  LYS109      0.0035
    104  CD        77.8720   44.6810   16.7400 C.3   109  LYS109      0.0206
    105  CE        79.0640   43.9590   17.4080 C.3   109  LYS109      0.1093
    106  NZ        78.7020   42.6230   17.9780 N.3   109  LYS109     -0.1314
    107  N         76.8180   49.7690   13.2090 N.am  110  PHE110     -0.1976
    108  CA        76.0150   50.4100   12.1850 C.3   110  PHE110      0.1639
    109  C         76.8000   50.4510   10.8690 C.2   110  PHE110      0.2290
    110  O         76.4350   49.8000    9.8710 O.2   110  PHE110     -0.2864
    111  CB        75.6280   51.8150   12.6400 C.3   110  PHE110      0.0560
    112  CG        74.7190   52.5020   11.7010 C.ar  110  PHE110     -0.0200
    113  CD1       73.4660   51.9700   11.4330 C.ar  110  PHE110     -0.0042
    114  CD2       75.1170   53.6530   11.0460 C.ar  110  PHE110     -0.0042
    115  CE1       72.6140   52.5840   10.5320 C.ar  110  PHE110     -0.0003
    116  CE2       74.2720   54.2840   10.1510 C.ar  110  PHE110     -0.0003
    117  CZ        73.0140   53.7430    9.8900 C.ar  110  PHE110     -0.0000
    118  N         79.9210   49.8310    8.2870 N.3   112  ILE112     -0.1245
    119  CA        80.6650   48.6380    7.9480 C.3   112  ILE112      0.1561
    120  C         82.1280   48.9880    7.7040 C.2   112  ILE112      0.2260
    121  O         82.4770   49.9770    7.0390 O.2   112  ILE112     -0.2867
    122  CB        80.0600   47.9150    6.7320 C.3   112  ILE112      0.0252
    123  CG1       78.6270   47.4320    7.0350 C.3   112  ILE112      0.0019
    124  CG2       80.9910   46.7610    6.2840 C.3   112  ILE112      0.0019
    125  CD1       77.7830   47.0510    5.7390 C.3   112  ILE112      0.0001
    126  N         80.0900   54.0590    2.1130 N.3   117  TRP117     -0.1241
    127  CA        79.0360   54.9520    2.5130 C.3   117  TRP117      0.1605
    128  C         79.1530   55.3510    3.9930 C.2   117  TRP117      0.2264
    129  O         79.7400   54.6480    4.7980 O.2   117  TRP117     -0.2867
    130  CB        77.6440   54.3880    2.1970 C.3   117  TRP117      0.0550
    131  CG        77.2970   53.0650    2.8040 C.ar  117  TRP117      0.0003
    132  CD1       77.3720   51.8690    2.1960 C.ar  117  TRP117      0.0946
    133  CD2       76.7790   52.8110    4.1260 C.ar  117  TRP117      0.0152
    134  NE1       76.9530   50.8850    3.0330 N.ar  117  TRP117     -0.2442
    135  CE2       76.5970   51.4330    4.2340 C.ar  117  TRP117      0.0810
    136  CE3       76.4710   53.6130    5.2230 C.ar  117  TRP117      0.0012
    137  CZ2       76.1000   50.8360    5.3880 C.ar  117  TRP117      0.0191
    138  CZ3       75.9850   53.0270    6.3560 C.ar  117  TRP117      0.0001
    139  CH2       75.8090   51.6520    6.4410 C.ar  117  TRP117      0.0015
    140  N         72.6580   57.1170    5.6530 N.3   120  ILE120     -0.1245
    141  CA        71.5180   56.3190    5.2460 C.3   120  ILE120      0.1561
    142  C         70.3630   57.2450    4.8430 C.2   120  ILE120      0.2260
    143  O         70.0410   58.2040    5.5460 O.2   120  ILE120     -0.2867
    144  CB        71.0960   55.3120    6.3720 C.3   120  ILE120      0.0252
    145  CG1       69.9630   54.3870    5.8700 C.3   120  ILE120      0.0019
    146  CG2       70.7090   56.0620    7.6310 C.3   120  ILE120      0.0019
    147  CD1       69.6540   53.2130    6.7870 C.3   120  ILE120      0.0001
    148  N         57.1340   55.6320   10.6310 N.3   128  ILE128     -0.1245
    149  CA        58.2190   54.8620   11.2280 C.3   128  ILE128      0.1561
    150  C         59.4950   55.7110   11.3730 C.2   128  ILE128      0.2260
    151  O         60.5670   55.1870   11.6740 O.2   128  ILE128     -0.2867
    152  CB        58.4690   53.5440   10.4290 C.3   128  ILE128      0.0252
    153  CG1       59.0090   53.8160    9.0120 C.3   128  ILE128      0.0019
    154  CG2       57.1970   52.7320   10.3250 C.3   128  ILE128      0.0019
    155  CD1       59.4290   52.5740    8.3360 C.3   128  ILE128      0.0001
    156  N         62.0820   58.3080   13.1570 N.3   130  ARG130     -0.1245
    157  CA        62.5210   58.4070   14.5240 C.3   130  ARG130      0.1563
    158  C         62.9910   59.8180   14.7550 C.2   130  ARG130      0.2260
    159  O         63.5720   60.4040   13.8550 O.2   130  ARG130     -0.2867
    160  CB        63.5720   57.3450   14.8220 C.3   130  ARG130      0.0307
    161  CG        62.9560   56.1900   15.6070 C.3   130  ARG130      0.0489
    162  CD        63.5310   54.8500   15.2930 C.3   130  ARG130      0.2205
    163  NE        62.7510   54.1700   14.2730 N.pl3 130  ARG130     -0.0865
    164  CZ        62.8100   52.8640   14.0180 C.cat 130  ARG130      0.5346
    165  NH1       62.0560   52.3490   13.0390 N.pl3 130  ARG130      0.1354
    166  NH2       63.6140   52.0700   14.7240 N.pl3 130  ARG130      0.1354
    167  N         56.0870   51.3570    6.4580 N.3   190  TYR190     -0.1241
    168  CA        56.9690   50.7030    5.4840 C.3   190  TYR190      0.1605
    169  C         56.2510   50.6720    4.1600 C.2   190  TYR190      0.2264
    170  O         55.0620   51.0100    4.0610 O.2   190  TYR190     -0.2867
    171  CB        57.2940   49.2680    5.8810 C.3   190  TYR190      0.0534
    172  CG        57.9520   49.1150    7.2630 C.ar  190  TYR190     -0.0201
    173  CD1       59.3430   49.0920    7.4060 C.ar  190  TYR190     -0.0009
    174  CD2       57.1720   48.9880    8.4150 C.ar  190  TYR190     -0.0009
    175  CE1       59.9400   48.9480    8.6670 C.ar  190  TYR190      0.0417
    176  CE2       57.7470   48.8400    9.6750 C.ar  190  TYR190      0.0417
    177  CZ        59.1280   48.8290    9.7970 C.ar  190  TYR190      0.1957
    178  OH        59.6820   48.6850   11.0450 O.3   190  TYR190     -0.2866
    179  N         57.0850   43.5300    3.4100 N.3   218  ILE218     -0.1245
    180  CA        57.5780   44.8560    3.0110 C.3   218  ILE218      0.1561
    181  C         58.5990   44.7190    1.8970 C.2   218  ILE218      0.2260
    182  O         59.1600   43.6470    1.7100 O.2   218  ILE218     -0.2867
    183  CB        58.1530   45.6730    4.2130 C.3   218  ILE218      0.0252
    184  CG1       59.4920   45.0900    4.7120 C.3   218  ILE218      0.0019
    185  CG2       57.1450   45.7230    5.3290 C.3   218  ILE218      0.0019
    186  CD1       60.3210   46.0560    5.6280 C.3   218  ILE218      0.0001
    187  N         62.1460   46.2550    0.7900 N.3   220  ASP220     -0.1239
    188  CA        63.2450   46.8230    1.5910 C.3   220  ASP220      0.1674
    189  C         64.6060   46.7120    0.9310 C.2   220  ASP220      0.2266
    190  O         65.2320   45.6780    0.9940 O.2   220  ASP220     -0.2867
    191  CB        63.3170   46.0920    2.9190 C.3   220  ASP220      0.1410
    192  CG        64.3230   46.7010    3.8500 C.2   220  ASP220      0.3668
    193  OD1       64.9630   47.7100    3.4730 O.co2 220  ASP220     -0.2456
    194  OD2       64.4540   46.1610    4.9530 O.co2 220  ASP220     -0.2456
    195  N         67.2000   48.0120    1.9650 N.3   222  GLY222     -0.1210
    196  CA        68.2080   48.0120    3.0330 C.3   222  GLY222      0.1956
    197  C         68.5820   46.6350    3.5700 C.2   222  GLY222      0.2613
    198  O         69.5030   46.5280    4.3830 O.2   222  GLY222     -0.2717
    199  N         67.8690   45.5950    3.1270 N.am  223  THR223     -0.1938
    200  CA        68.1090   44.1940    3.5120 C.3   223  THR223      0.2028
    201  C         68.6110   43.4190    2.2970 C.2   223  THR223      0.2642
    202  O         68.1170   43.6180    1.1820 O.2   223  THR223     -0.2714
    203  CB        66.7940   43.5350    3.9930 C.3   223  THR223      0.1808
    204  OG1       66.3050   44.2310    5.1320 O.3   223  THR223     -0.2208
    205  CG2       66.9670   42.0660    4.3690 C.3   223  THR223      0.0379
    206  N         69.6030   42.5580    2.5150 N.am  224  THR224     -0.1950
    207  CA        70.1620   41.7160    1.4670 C.3   224  THR224      0.1897
    208  C         69.2250   40.5840    1.0860 C.2   224  THR224      0.2313
    209  O         69.0540   40.2640   -0.1010 O.2   224  THR224     -0.2863
    210  CB        71.5040   41.0700    1.9240 C.3   224  THR224      0.1794
    211  OG1       72.4980   42.0890    2.0490 O.3   224  THR224     -0.2208
    212  CG2       72.0040   40.0550    0.9150 C.3   224  THR224      0.0378
    213  N         63.6040   37.4410    3.3510 N.3   227  ARG227     -0.1245
    214  CA        63.3020   36.9980    4.7020 C.3   227  ARG227      0.1563
    215  C         61.8290   36.5750    4.7170 C.2   227  ARG227      0.2260
    216  O         60.9800   37.2990    4.1850 O.2   227  ARG227     -0.2867
    217  CB        63.5870   38.1010    5.7410 C.3   227  ARG227      0.0307
    218  CG        65.0840   38.4910    5.8760 C.3   227  ARG227      0.0489
    219  CD        65.3390   39.6200    6.9060 C.3   227  ARG227      0.2205
    220  NE        65.0300   39.2010    8.2770 N.pl3 227  ARG227     -0.0865
    221  CZ        64.6740   40.0100    9.2880 C.cat 227  ARG227      0.5346
    222  NH1       64.5830   41.3270    9.1260 N.pl3 227  ARG227      0.1354
    223  NH2       64.4100   39.4900   10.4910 N.pl3 227  ARG227      0.1354
    224  N         60.3950   40.1470    4.1610 N.3   324  VAL324     -0.1245
    225  CA        61.2010   41.2580    3.7100 C.3   324  VAL324      0.1561
    226  C         61.6650   40.8970    2.3300 C.2   324  VAL324      0.2260
    227  O         62.3860   39.9000    2.1290 O.2   324  VAL324     -0.2867
    228  CB        62.4340   41.5360    4.6100 C.3   324  VAL324      0.0252
    229  CG1       63.0360   42.8540    4.2220 C.3   324  VAL324      0.0019
    230  CG2       62.0410   41.5430    6.0780 C.3   324  VAL324      0.0019
@<TRIPOS>BOND
     1    17    16    2
     2    16    15    1
     3     1     2    1
     4   209   208    2
     5    15    14    1
     6    14     7   am
     7   187   188    1
     8   212   210    1
     9     2     3    1
    10   189   190    2
    11   189   188    1
    12   208   207    1
    13     5     3   am
    14     5     6    1
    15   202   201    2
    16    20    19    1
    17    20    21    2
    18    26    27    1
    19     7     8    2
    20     7     6    1
    21   207   210    1
    22   207   206    1
    23   188   191    1
    24     9     6    1
    25     9    10    1
    26    19    18    1
    27    19    22    1
    28   182   181    2
    29     3     4    2
    30    13    11   am
    31   181   180    1
    32   210   211    1
    33   195   196    1
    34   126   127    1
    35   227   226    2
    36   132   131   ar
    37   132   134   ar
    38   130   127    1
    39   130   131    1
    40    28    27    1
    41    28    29    2
    42    24    23    1
    43    27    30    1
    44   201   206   am
    45   201   200    1
    46    10    11    1
    47   226   225    1
    48    11    12    2
    49   127   128    1
    50   131   133   ar
    51    23    22    1
    52    23    25    1
    53   191   192    1
    54   180   179    1
    55   180   183    1
    56   196   197    1
    57   134   135   ar
    58   199   200    1
    59   199   197   am
    60   213   214    1
    61   193   192   ar
    62   200   203    1
    63   197   198    2
    64    34    35    1
    65    30    31    1
    66   225   224    1
    67   225   228    1
    68   192   194   ar
    69   128   129    2
    70   203   205    1
    71   203   204    1
    72   170   169    2
    73    32    31   ar
    74   133   135   ar
    75   133   136   ar
    76   169   168    1
    77   216   215    2
    78   183   184    1
    79   183   185    1
    80   229   228    1
    81   135   137   ar
    82    31    33   ar
    83   228   230    1
    84   214   215    1
    85   214   217    1
    86   184   186    1
    87   142   141    1
    88   142   143    2
    89    35    36    1
    90    41    40    2
    91   136   138   ar
    92   141   140    1
    93   141   144    1
    94   137   139   ar
    95   168   171    1
    96   168   167    1
    97   125   123    1
    98   217   218    1
    99   145   144    1
   100   145   147    1
   101   218   219    1
   102   171   172    1
   103    38    36   am
   104    38    39    1
   105    36    37    2
   106   124   122    1
   107   138   139   ar
   108   144   146    1
   109    40    39    1
   110    40    44   am
   111   122   123    1
   112   122   119    1
   113   219   220    1
   114    53    52    2
   115    45    44    1
   116    45    48    1
   117    45    46    1
   118    43    42    1
   119   121   120    2
   120    39    42    1
   121    49    48    1
   122   172   173   ar
   123   172   174   ar
   124   173   175   ar
   125    52    51    1
   126    47    46    2
   127    46    50   am
   128   120   119    1
   129   119   118    1
   130    50    51    1
   131   220   221    2
   132   155   153    1
   133   174   176   ar
   134    51    54    1
   135   175   177   ar
   136   153   152    1
   137   222   221    1
   138   221   223    1
   139   176   177   ar
   140   177   178    1
   141   110   109    2
   142    54    55    1
   143   117   116   ar
   144   117   115   ar
   145   116   114   ar
   146   154   152    1
   147   152   149    1
   148   115   113   ar
   149   148   149    1
   150   109   108    1
   151    55    57   am
   152    55    56    2
   153   114   112   ar
   154   149   150    1
   155   150   151    2
   156   113   112   ar
   157   112   111    1
   158   108   111    1
   159   108   107    1
   160    95    93   ar
   161    95    97   ar
   162    92    93   ar
   163    92    90   ar
   164   165   164    1
   165    93    91   ar
   166   101   100    2
   167    97    96   ar
   168   156   157    1
   169   107   100   am
   170    90    89   ar
   171   100    99    1
   172   159   158    2
   173    91    89   ar
   174    91    94   ar
   175    96    94   ar
   176   164   163    2
   177   164   166    1
   178    89    88    1
   179   163   162    1
   180    83    82    1
   181   157   158    1
   182   157   160    1
   183    99   102    1
   184    99    98    1
   185    82    80   ar
   186    82    81   ar
   187    80    78   ar
   188   160   161    1
   189    81    79   ar
   190    88    85    1
   191    78    77   ar
   192   102   103    1
   193    63    62    1
   194    79    77   ar
   195   162   161    1
   196    77    76    1
   197    76    73    1
   198    64    62    1
   199   103   104    1
   200    62    59    1
   201    85    84    1
   202    85    86    1
   203   104   105    1
   204    86    87    2
   205    61    60    2
   206    73    72    1
   207    73    74    1
   208   105   106    1
   209    59    60    1
   210    59    58    1
   211    68    67    2
   212    60    65   am
   213    72    67   am
   214    74    75    2
   215    67    66    1
   216    65    66    1
   217    65    71    1
   218    66    69    1
   219    71    70    1
   220    69    70    1
