@<TRIPOS>MOLECULE
tmp/2ohvA00.pdb
 182 173 0 0 0
SMALL
GASTEIGER

@<TRIPOS>ATOM
      1  N         26.0660   37.8860   65.8590 N.3     9  LEU9       -0.1231
      2  CA        26.7090   36.9300   66.7520 C.3     9  LEU9        0.1693
      3  C         28.2050   37.2550   66.8850 C.2     9  LEU9        0.2592
      4  O         28.9670   37.1200   65.9310 O.2     9  LEU9       -0.2718
      5  CB        26.5140   35.5000   66.2320 C.3     9  LEU9        0.0284
      6  CG        27.3290   34.8990   65.0840 C.3     9  LEU9        0.0019
      7  CD1       28.7200   34.4740   65.5640 C.3     9  LEU9        0.0001
      8  CD2       26.6110   33.6770   64.5820 C.3     9  LEU9        0.0001
      9  N         28.6200   37.7160   68.0590 N.am   10  ASP10      -0.1960
     10  CA        30.0280   38.0320   68.2720 C.3    10  ASP10       0.1840
     11  C         30.6220   37.1410   69.3640 C.2    10  ASP10       0.2623
     12  O         29.8960   36.4490   70.0810 O.2    10  ASP10      -0.2715
     13  CB        30.2030   39.5050   68.6500 C.3    10  ASP10       0.1450
     14  CG        31.6600   39.9400   68.6310 C.2    10  ASP10       0.3671
     15  OD1       32.3220   39.7410   67.5900 O.co2  10  ASP10      -0.2456
     16  OD2       32.1430   40.4780   69.6500 O.co2  10  ASP10      -0.2456
     17  N         31.9460   37.1560   69.4840 N.am   11  SER11      -0.1936
     18  CA        32.6370   36.3410   70.4800 C.3    11  SER11       0.2055
     19  C         32.8010   37.0870   71.7920 C.2    11  SER11       0.2644
     20  O         33.2620   36.5290   72.7750 O.2    11  SER11      -0.2714
     21  CB        34.0120   35.9180   69.9490 C.3    11  SER11       0.2130
     22  OG        34.7070   37.0040   69.3570 O.3    11  SER11      -0.2179
     23  N         32.4130   38.3550   71.7920 N.am   12  GLY12      -0.1939
     24  CA        32.5380   39.1740   72.9790 C.3    12  GLY12       0.2014
     25  C         31.9900   40.5520   72.6720 C.2    12  GLY12       0.2639
     26  O         30.8800   40.6860   72.1670 O.2    12  GLY12      -0.2714
     27  N         32.7780   41.5780   72.9430 N.am   13  VAL13      -0.1963
     28  CA        32.3630   42.9480   72.7130 C.3    13  VAL13       0.1727
     29  C         32.9390   43.5450   71.4120 C.2    13  VAL13       0.2616
     30  O         32.5740   44.6520   71.0010 O.2    13  VAL13      -0.2715
     31  CB        32.7920   43.8210   73.9120 C.3    13  VAL13       0.0290
     32  CG1       34.3040   44.0090   73.9030 C.3    13  VAL13       0.0023
     33  CG2       32.0810   45.1550   73.8730 C.3    13  VAL13       0.0023
     34  N         33.8320   42.8090   70.7610 N.am   14  GLY14      -0.1955
     35  CA        34.4350   43.3050   69.5370 C.3    14  GLY14       0.1869
     36  C         33.4470   43.6610   68.4410 C.2    14  GLY14       0.2309
     37  O         33.5080   44.7460   67.8530 O.2    14  GLY14      -0.2863
     38  N         29.3220   36.1670   72.9750 N.3    36  ASP36      -0.1239
     39  CA        29.6840   35.0820   73.8740 C.3    36  ASP36       0.1674
     40  C         30.9670   35.3480   74.6870 C.2    36  ASP36       0.2266
     41  O         31.9300   34.5840   74.5890 O.2    36  ASP36      -0.2867
     42  CB        29.8270   33.7910   73.0560 C.3    36  ASP36       0.1410
     43  CG        29.5580   32.5410   73.8800 C.2    36  ASP36       0.3668
     44  OD1       29.3280   32.6720   75.1040 O.co2  36  ASP36      -0.2456
     45  OD2       29.5720   31.4280   73.3010 O.co2  36  ASP36      -0.2456
     46  N         33.4000   31.4450   77.6300 N.3    39  ARG39      -0.1231
     47  CA        33.7930   30.3740   76.7080 C.3    39  ARG39       0.1694
     48  C         34.9900   30.7430   75.8240 C.2    39  ARG39       0.2591
     49  O         35.2060   31.9140   75.5100 O.2    39  ARG39      -0.2718
     50  CB        32.6060   29.9870   75.8160 C.3    39  ARG39       0.0321
     51  CG        31.3030   29.7720   76.5690 C.3    39  ARG39       0.0489
     52  CD        30.1200   29.6760   75.6180 C.3    39  ARG39       0.2205
     53  NE        30.0130   28.3650   74.9840 N.pl3  39  ARG39      -0.0865
     54  CZ        29.2330   28.1060   73.9400 C.cat  39  ARG39       0.5346
     55  NH1       28.4960   29.0700   73.4070 N.pl3  39  ARG39       0.1354
     56  NH2       29.1760   26.8800   73.4390 N.pl3  39  ARG39       0.1354
     57  N         35.7580   29.7310   75.4210 N.am   40  ALA40      -0.1980
     58  CA        36.9290   29.9360   74.5710 C.3    40  ALA40       0.1597
     59  C         37.4450   28.6210   73.9960 C.2    40  ALA40       0.2287
     60  O         38.3680   28.6090   73.1830 O.2    40  ALA40      -0.2864
     61  CB        38.0250   30.6170   75.3620 C.3    40  ALA40       0.0319
     62  N         34.6140   25.4560   68.0300 N.3    45  ILE45      -0.1245
     63  CA        34.1750   26.8130   67.7450 C.3    45  ILE45       0.1561
     64  C         32.9150   26.7930   66.8880 C.2    45  ILE45       0.2260
     65  O         32.0570   27.6700   67.0300 O.2    45  ILE45      -0.2867
     66  CB        35.3030   27.6390   67.0470 C.3    45  ILE45       0.0252
     67  CG1       36.2500   28.1900   68.1170 C.3    45  ILE45       0.0019
     68  CG2       34.7160   28.7820   66.1990 C.3    45  ILE45       0.0019
     69  CD1       37.3660   29.0620   67.5880 C.3    45  ILE45       0.0001
     70  N         30.0240   26.2180   69.1480 N.3    48  TYR48      -0.1227
     71  CA        29.7300   27.4470   69.8740 C.3    48  TYR48       0.1736
     72  C         28.9630   28.4170   68.9830 C.2    48  TYR48       0.2596
     73  O         27.9670   29.0140   69.4000 O.2    48  TYR48      -0.2718
     74  CB        31.0280   28.1070   70.3330 C.3    48  TYR48       0.0548
     75  CG        31.6710   27.4990   71.5590 C.ar   48  TYR48      -0.0200
     76  CD1       31.7420   26.1190   71.7330 C.ar   48  TYR48      -0.0009
     77  CD2       32.2490   28.3140   72.5310 C.ar   48  TYR48      -0.0009
     78  CE1       32.3770   25.5670   72.8460 C.ar   48  TYR48       0.0417
     79  CE2       32.8840   27.7740   73.6400 C.ar   48  TYR48       0.0417
     80  CZ        32.9470   26.4050   73.7950 C.ar   48  TYR48       0.1957
     81  OH        33.5780   25.8850   74.9020 O.3    48  TYR48      -0.2866
     82  N         29.4380   28.5740   67.7530 N.am   49  THR49      -0.1953
     83  CA        28.8050   29.4790   66.8050 C.3    49  THR49       0.1897
     84  C         27.3590   29.0600   66.5870 C.2    49  THR49       0.2313
     85  O         26.4520   29.8820   66.6800 O.2    49  THR49      -0.2863
     86  CB        29.5700   29.4910   65.4600 C.3    49  THR49       0.1794
     87  OG1       30.8580   30.0760   65.6670 O.3    49  THR49      -0.2208
     88  CG2       28.8280   30.3040   64.4060 C.3    49  THR49       0.0378
     89  N         25.0200   30.1140   69.1490 N.3    52  LEU52      -0.1245
     90  CA        24.6820   31.5290   69.0320 C.3    52  LEU52       0.1561
     91  C         23.7550   31.7960   67.8510 C.2    52  LEU52       0.2260
     92  O         22.9880   32.7590   67.8670 O.2    52  LEU52      -0.2867
     93  CB        25.9540   32.3640   68.8760 C.3    52  LEU52       0.0270
     94  CG        26.9810   32.2950   70.0070 C.3    52  LEU52       0.0019
     95  CD1       28.2770   32.8970   69.5310 C.3    52  LEU52       0.0001
     96  CD2       26.4760   33.0330   71.2210 C.3    52  LEU52       0.0001
     97  N         32.2370   38.3300   64.1940 N.3    68  CYS68      -0.1235
     98  CA        33.5140   37.8020   64.6360 C.3    68  CYS68       0.1677
     99  C         34.3060   37.1520   63.5090 C.2    68  CYS68       0.2270
    100  O         33.8420   36.1960   62.8580 O.2    68  CYS68      -0.2867
    101  CB        33.2990   36.7980   65.7560 C.3    68  CYS68       0.0956
    102  SG        34.8020   35.9790   66.2390 S.3    68  CYS68      -0.0801
    103  N         36.9760   35.2400   63.5980 N.3    70  THR70      -0.1203
    104  CA        37.3160   33.8370   63.8280 C.3    70  THR70       0.1994
    105  C         36.1270   32.9290   63.5570 C.2    70  THR70       0.2617
    106  O         36.2480   31.9210   62.8520 O.2    70  THR70      -0.2717
    107  CB        37.8080   33.6170   65.2680 C.3    70  THR70       0.1784
    108  OG1       39.0710   34.2610   65.4320 O.3    70  THR70      -0.2211
    109  CG2       37.9690   32.1390   65.5650 C.3    70  THR70       0.0376
    110  N         34.9800   33.2910   64.1290 N.am   71  ALA71      -0.1979
    111  CA        33.7470   32.5360   63.9290 C.3    71  ALA71       0.1597
    112  C         33.4560   32.4720   62.4170 C.2    71  ALA71       0.2287
    113  O         33.1350   31.4110   61.8740 O.2    71  ALA71      -0.2864
    114  CB        32.5990   33.2290   64.6680 C.3    71  ALA71       0.0319
    115  N         43.4840   38.8760   65.1690 N.3   112  THR112     -0.1204
    116  CA        43.5950   37.9160   66.2460 C.3   112  THR112      0.1979
    117  C         44.4620   36.7040   65.8910 C.2   112  THR112      0.2460
    118  O         44.5840   36.3380   64.7240 O.2   112  THR112     -0.2732
    119  CB        42.1760   37.4500   66.6150 C.3   112  THR112      0.1783
    120  OG1       41.7440   38.1220   67.8050 O.3   112  THR112     -0.2211
    121  CG2       42.1160   35.9510   66.7560 C.3   112  THR112      0.0376
    122  N         45.0880   36.0760   66.9030 N.am  113  PRO113     -0.2717
    123  CA        45.9390   34.8940   66.7100 C.3   113  PRO113      0.1535
    124  C         45.1640   33.7570   66.0460 C.2   113  PRO113      0.2598
    125  O         45.6820   33.0540   65.1620 O.2   113  PRO113     -0.2715
    126  CB        46.3690   34.5440   68.1330 C.3   113  PRO113      0.0310
    127  CG        46.5450   35.9080   68.7470 C.3   113  PRO113      0.0237
    128  CD        45.2930   36.6510   68.2460 C.3   113  PRO113      0.0939
    129  N         43.9180   33.5810   66.4790 N.am  114  MET114     -0.1964
    130  CA        43.0750   32.5380   65.9180 C.3   114  MET114      0.1736
    131  C         42.6710   32.8850   64.4840 C.2   114  MET114      0.2617
    132  O         42.6890   32.0150   63.5980 O.2   114  MET114     -0.2715
    133  CB        41.8230   32.3360   66.7780 C.3   114  MET114      0.0427
    134  CG        42.1140   32.0620   68.2470 C.3   114  MET114      0.0599
    135  SD        40.6950   31.3740   69.1470 S.3   114  MET114     -0.1393
    136  CE        40.8320   29.6410   68.6730 C.3   114  MET114      0.0692
    137  N         42.3190   34.1470   64.2420 N.am  115  THR115     -0.1951
    138  CA        41.9210   34.5370   62.8870 C.3   115  THR115      0.1897
    139  C         43.0990   34.3190   61.9560 C.2   115  THR115      0.2313
    140  O         42.9470   33.7940   60.8530 O.2   115  THR115     -0.2863
    141  CB        41.4850   36.0210   62.7910 C.3   115  THR115      0.1794
    142  OG1       40.3090   36.2310   63.5730 O.3   115  THR115     -0.2208
    143  CG2       41.1610   36.3940   61.3480 C.3   115  THR115      0.0378
    144  N         43.6140   43.7270   71.2620 N.3   143  VAL143     -0.1245
    145  CA        42.3000   43.5550   71.8880 C.3   143  VAL143      0.1561
    146  C         42.2770   44.0610   73.3320 C.2   143  VAL143      0.2260
    147  O         41.4100   44.8660   73.7090 O.2   143  VAL143     -0.2867
    148  CB        41.8420   42.0700   71.8590 C.3   143  VAL143      0.0252
    149  CG1       40.6870   41.8590   72.8210 C.3   143  VAL143      0.0019
    150  CG2       41.4110   41.6870   70.4500 C.3   143  VAL143      0.0019
    151  N         39.7810   47.1330   75.0040 N.3   147  GLU147     -0.1245
    152  CA        38.8180   46.9480   76.0800 C.3   147  GLU147      0.1567
    153  C         39.1500   47.8110   77.2910 C.2   147  GLU147      0.2260
    154  O         38.2780   48.1040   78.1140 O.2   147  GLU147     -0.2867
    155  CB        38.7530   45.4780   76.4730 C.3   147  GLU147      0.0388
    156  CG        38.6990   44.5580   75.2680 C.3   147  GLU147      0.1160
    157  CD        38.0680   43.2270   75.5810 C.2   147  GLU147      0.3649
    158  OE1       38.2250   42.7530   76.7250 O.co2 147  GLU147     -0.2457
    159  OE2       37.4260   42.6490   74.6810 O.co2 147  GLU147     -0.2457
    160  N         40.3200   42.3540   62.6180 N.3   178  CYS178     -0.1221
    161  CA        39.7200   42.1150   63.9300 C.3   178  CYS178      0.1808
    162  C         38.7600   43.2830   64.1230 C.2   178  CYS178      0.2602
    163  O         39.1310   44.4370   63.8920 O.2   178  CYS178     -0.2717
    164  CB        40.7790   42.1120   65.0370 C.3   178  CYS178      0.0970
    165  SG        40.1260   41.9620   66.7190 S.3   178  CYS178     -0.0800
    166  N         37.5290   42.9920   64.5380 N.am  179  THR179     -0.1939
    167  CA        36.5350   44.0480   64.7090 C.3   179  THR179      0.2028
    168  C         36.8730   44.9850   65.8580 C.2   179  THR179      0.2642
    169  O         36.2750   46.0490   66.0170 O.2   179  THR179     -0.2714
    170  CB        35.1020   43.4520   64.8580 C.3   179  THR179      0.1808
    171  OG1       35.0300   42.5790   65.9920 O.3   179  THR179     -0.2208
    172  CG2       34.7610   42.6520   63.6260 C.3   179  THR179      0.0379
    173  N         37.8590   44.5990   66.6510 N.am  180  HIS180     -0.1973
    174  CA        38.2980   45.4370   67.7540 C.3   180  HIS180      0.1656
    175  C         39.1530   46.6010   67.2310 C.2   180  HIS180      0.2291
    176  O         39.0380   47.7340   67.7020 O.2   180  HIS180     -0.2864
    177  CB        39.1820   44.6370   68.7160 C.3   180  HIS180      0.0771
    178  CG        38.4560   44.0050   69.8590 C.ar  180  HIS180      0.0820
    179  ND1       38.0220   42.6950   69.8330 N.ar  180  HIS180     -0.2267
    180  CD2       38.1780   44.4700   71.1010 C.ar  180  HIS180      0.1154
    181  CE1       37.5180   42.3800   71.0150 C.ar  180  HIS180      0.1986
    182  NE2       37.6020   43.4390   71.8030 N.ar  180  HIS180     -0.2212
@<TRIPOS>BOND
     1   140   139    2
     2   143   141    1
     3   113   112    2
     4   139   138    1
     5   112   111    1
     6   160   161    1
     7   141   138    1
     8   141   142    1
     9   106   105    2
    10   100    99    2
    11   138   137    1
    12    99    98    1
    13   105   104    1
    14   105   110   am
    15   132   131    2
    16   103   104    1
    17   172   170    1
    18   104   107    1
    19   163   162    2
    20   111   110    1
    21   111   114    1
    22   161   162    1
    23   161   164    1
    24   162   166   am
    25    97    98    1
    26   137   131   am
    27    88    86    1
    28   131   130    1
    29   166   167    1
    30     8     6    1
    31    98   101    1
    32   167   170    1
    33   167   168    1
    34   118   117    2
    35   170   171    1
    36   164   165    1
    37     6     7    1
    38     6     5    1
    39   125   124    2
    40   115   116    1
    41   107   108    1
    42   107   109    1
    43    86    87    1
    44    86    83    1
    45   101   102    1
    46   168   169    2
    47   168   173   am
    48     1     2    1
    49   117   116    1
    50   117   122   am
    51   130   129    1
    52   130   133    1
    53     4     3    2
    54   124   129   am
    55   124   123    1
    56    68    66    1
    57     5     2    1
    58   116   119    1
    59    84    85    2
    60    84    83    1
    61   119   121    1
    62   119   120    1
    63   173   174    1
    64   123   122    1
    65   123   126    1
    66     2     3    1
    67   133   134    1
    68    83    82    1
    69     3     9   am
    70    64    65    2
    71    64    63    1
    72   122   128    1
    73    66    63    1
    74    66    67    1
    75   175   176    2
    76   175   174    1
    77    69    67    1
    78    15    14   ar
    79    63    62    1
    80    82    72   am
    81   174   177    1
    82    91    92    2
    83    91    90    1
    84    37    36    2
    85     9    10    1
    86   126   127    1
    87   128   127    1
    88   134   135    1
    89    10    13    1
    90    10    11    1
    91    36    35    1
    92    14    13    1
    93    14    16   ar
    94   136   135    1
    95   177   178    1
    96    93    90    1
    97    93    94    1
    98    72    73    2
    99    72    71    1
   100    90    89    1
   101    70    71    1
   102    22    21    1
   103    11    17   am
   104    11    12    2
   105    17    18    1
   106    95    94    1
   107    35    34    1
   108   179   178   ar
   109   179   181   ar
   110   178   180   ar
   111    71    74    1
   112    21    18    1
   113    94    96    1
   114    74    75    1
   115   150   148    1
   116    18    19    1
   117    34    29   am
   118    30    29    2
   119   181   182   ar
   120   180   182   ar
   121   144   145    1
   122    29    28    1
   123    75    76   ar
   124    75    77   ar
   125    76    78   ar
   126    23    19   am
   127    23    24    1
   128    19    20    2
   129   148   145    1
   130   148   149    1
   131   145   146    1
   132    26    25    2
   133    77    79   ar
   134    25    27   am
   135    25    24    1
   136    28    27    1
   137    28    31    1
   138    78    80   ar
   139    38    39    1
   140    42    39    1
   141    42    43    1
   142    60    59    2
   143    45    43   ar
   144   146   147    2
   145    55    54    1
   146    56    54    1
   147    79    80   ar
   148    80    81    1
   149    33    31    1
   150    39    40    1
   151    43    44   ar
   152    32    31    1
   153    54    53    2
   154    59    58    1
   155    58    61    1
   156    58    57    1
   157    41    40    2
   158   159   157   ar
   159    53    52    1
   160   151   152    1
   161   156   157    1
   162   156   155    1
   163    57    48   am
   164    49    48    2
   165   157   158   ar
   166    52    51    1
   167    50    51    1
   168    50    47    1
   169    48    47    1
   170   152   155    1
   171   152   153    1
   172    47    46    1
   173   153   154    2
