@<TRIPOS>MOLECULE
tmp/2oi0A00.pdb
 153 150 0 0 0
SMALL
GASTEIGER

@<TRIPOS>ATOM
      1  N         37.3340   27.7120   -6.8920 N.3   130  MET130     -0.1230
      2  CA        38.6540   28.3290   -6.8590 C.3   130  MET130      0.1702
      3  C         39.5960   27.6250   -5.8880 C.2   130  MET130      0.2593
      4  O         40.6350   28.1700   -5.5150 O.2   130  MET130     -0.2718
      5  CB        38.5380   29.8110   -6.4850 C.3   130  MET130      0.0401
      6  CG        38.4360   30.7620   -7.6680 C.3   130  MET130      0.0596
      7  SD        37.3990   30.1510   -9.0200 S.3   130  MET130     -0.1393
      8  CE        38.5780   29.1770   -9.9390 C.3   130  MET130      0.0692
      9  N         39.2250   26.4180   -5.4760 N.am  131  GLY131     -0.1942
     10  CA        40.1030   25.6210   -4.6390 C.3   131  GLY131      0.2014
     11  C         40.2250   26.1020   -3.2010 C.2   131  GLY131      0.2640
     12  O         41.2270   25.8280   -2.5410 O.2   131  GLY131     -0.2714
     13  N         39.2110   26.8140   -2.7150 N.am  132  THR132     -0.1936
     14  CA        39.1910   27.3040   -1.3350 C.3   132  THR132      0.2028
     15  C         39.1280   26.1460   -0.3390 C.2   132  THR132      0.2642
     16  O         38.3610   25.1970   -0.5260 O.2   132  THR132     -0.2714
     17  CB        37.9730   28.2300   -1.0950 C.3   132  THR132      0.1808
     18  OG1       38.1290   29.4300   -1.8630 O.3   132  THR132     -0.2208
     19  CG2       37.8400   28.5900    0.3920 C.3   132  THR132      0.0379
     20  N         39.9360   26.2310    0.7160 N.am  133  LEU133     -0.1963
     21  CA        39.9690   25.2040    1.7580 C.3   133  LEU133      0.1728
     22  C         39.3320   25.6690    3.0660 C.2   133  LEU133      0.2617
     23  O         38.7640   24.8680    3.8080 O.2   133  LEU133     -0.2715
     24  CB        41.4150   24.7680    2.0330 C.3   133  LEU133      0.0311
     25  CG        42.1110   24.0500    0.8790 C.3   133  LEU133      0.0022
     26  CD1       43.5330   23.6450    1.2720 C.3   133  LEU133      0.0001
     27  CD2       41.3000   22.8360    0.5060 C.3   133  LEU133      0.0001
     28  N         39.4360   26.9590    3.3560 N.am  134  GLY134     -0.1940
     29  CA        38.8930   27.4580    4.6060 C.3   134  GLY134      0.2014
     30  C         38.4560   28.9080    4.5400 C.2   134  GLY134      0.2639
     31  O         38.7430   29.6110    3.5680 O.2   134  GLY134     -0.2714
     32  N         37.7560   29.3530    5.5780 N.am  135  LEU135     -0.1963
     33  CA        37.3910   30.7620    5.7250 C.3   135  LEU135      0.1728
     34  C         37.0800   31.0300    7.2000 C.2   135  LEU135      0.2616
     35  O         36.5250   30.1650    7.8930 O.2   135  LEU135     -0.2715
     36  CB        36.1540   31.0870    4.8690 C.3   135  LEU135      0.0311
     37  CG        35.7260   32.5540    4.7520 C.3   135  LEU135      0.0022
     38  CD1       36.7680   33.3130    3.9550 C.3   135  LEU135      0.0001
     39  CD2       34.3530   32.6560    4.0660 C.3   135  LEU135      0.0001
     40  N         37.4250   32.2250    7.6710 N.am  136  ALA136     -0.1977
     41  CA        37.2020   32.5950    9.0670 C.3   136  ALA136      0.1597
     42  C         37.0610   34.1090    9.2010 C.2   136  ALA136      0.2287
     43  O         37.5090   34.8560    8.3380 O.2   136  ALA136     -0.2864
     44  CB        38.3710   32.0980    9.9380 C.3   136  ALA136      0.0319
     45  N         48.2760   18.7470    5.6550 N.3   183  GLU183     -0.1245
     46  CA        47.7340   19.8890    4.9270 C.3   183  GLU183      0.1567
     47  C         46.5320   20.4370    5.6860 C.2   183  GLU183      0.2260
     48  O         46.3680   21.6490    5.8190 O.2   183  GLU183     -0.2867
     49  CB        47.3240   19.4660    3.5140 C.3   183  GLU183      0.0388
     50  CG        48.4930   18.9440    2.6980 C.3   183  GLU183      0.1160
     51  CD        48.1050   18.4760    1.3100 C.2   183  GLU183      0.3649
     52  OE1       46.9850   17.9510    1.1340 O.co2 183  GLU183     -0.2457
     53  OE2       48.9350   18.6320    0.3930 O.co2 183  GLU183     -0.2457
     54  N         47.4420   22.5630    8.6120 N.3   186  LEU186     -0.1231
     55  CA        47.8450   23.9110    8.2240 C.3   186  LEU186      0.1693
     56  C         46.6650   24.8310    7.9360 C.2   186  LEU186      0.2591
     57  O         46.6520   25.9780    8.3750 O.2   186  LEU186     -0.2718
     58  CB        48.7520   23.8570    6.9940 C.3   186  LEU186      0.0284
     59  CG        50.1270   23.2090    7.1780 C.3   186  LEU186      0.0019
     60  CD1       50.9180   23.3270    5.8820 C.3   186  LEU186      0.0001
     61  CD2       50.8710   23.8960    8.3170 C.3   186  LEU186      0.0001
     62  N         45.6800   24.3330    7.1930 N.am  187  VAL187     -0.1980
     63  CA        44.4990   25.1330    6.8560 C.3   187  VAL187      0.1595
     64  C         43.7760   25.6010    8.1140 C.2   187  VAL187      0.2287
     65  O         43.4100   26.7650    8.2360 O.2   187  VAL187     -0.2864
     66  CB        43.4970   24.3260    5.9930 C.3   187  VAL187      0.0276
     67  CG1       42.1840   25.0880    5.8640 C.3   187  VAL187      0.0022
     68  CG2       44.0910   24.0510    4.6230 C.3   187  VAL187      0.0022
     69  N         45.6330   28.1010    9.8340 N.3   190  HIS190     -0.1226
     70  CA        45.4890   29.3440    9.0820 C.3   190  HIS190      0.1752
     71  C         44.1600   30.0370    9.3920 C.2   190  HIS190      0.2595
     72  O         44.1310   31.2500    9.6250 O.2   190  HIS190     -0.2718
     73  CB        45.6120   29.0570    7.5730 C.3   190  HIS190      0.0759
     74  CG        45.2970   30.2320    6.6910 C.ar  190  HIS190      0.0818
     75  ND1       46.2680   30.9230    5.9970 N.ar  190  HIS190     -0.2268
     76  CD2       44.1160   30.8100    6.3600 C.ar  190  HIS190      0.1154
     77  CE1       45.6980   31.8740    5.2760 C.ar  190  HIS190      0.1986
     78  NE2       44.3930   31.8270    5.4780 N.ar  190  HIS190     -0.2212
     79  N         43.0650   29.2760    9.4040 N.am  191  GLU191     -0.1979
     80  CA        41.7490   29.8650    9.6570 C.3   191  GLU191      0.1602
     81  C         41.6420   30.3900   11.0930 C.2   191  GLU191      0.2287
     82  O         41.0870   31.4590   11.3330 O.2   191  GLU191     -0.2864
     83  CB        40.6470   28.8370    9.4100 C.3   191  GLU191      0.0415
     84  CG        40.6800   28.1860    8.0360 C.3   191  GLU191      0.1163
     85  CD        40.8010   29.1900    6.9040 C.2   191  GLU191      0.3649
     86  OE1       40.3760   30.3510    7.0670 O.co2 191  GLU191     -0.2457
     87  OE2       41.3280   28.8140    5.8410 O.co2 191  GLU191     -0.2457
     88  N         43.4100   33.8150   11.4600 N.3   194  HIS194     -0.1241
     89  CA        42.5050   34.9270   11.1910 C.3   194  HIS194      0.1621
     90  C         41.6730   35.2470   12.4350 C.2   194  HIS194      0.2264
     91  O         41.5960   36.4050   12.8470 O.2   194  HIS194     -0.2867
     92  CB        41.5500   34.5860   10.0370 C.3   194  HIS194      0.0745
     93  CG        42.1840   34.6340    8.6850 C.ar  194  HIS194      0.0817
     94  ND1       42.8590   35.7410    8.2190 N.ar  194  HIS194     -0.2268
     95  CD2       42.2360   33.7150    7.6930 C.ar  194  HIS194      0.1154
     96  CE1       43.3010   35.5010    6.9970 C.ar  194  HIS194      0.1986
     97  NE2       42.9370   34.2790    6.6540 N.ar  194  HIS194     -0.2212
     98  N         46.3510   37.9020    5.9260 N.3   200  HIS200     -0.1241
     99  CA        47.3050   37.1590    5.1050 C.3   200  HIS200      0.1621
    100  C         48.6780   37.8150    5.1240 C.2   200  HIS200      0.2264
    101  O         48.7900   39.0360    5.1870 O.2   200  HIS200     -0.2867
    102  CB        46.8290   37.0790    3.6520 C.3   200  HIS200      0.0745
    103  CG        45.6160   36.2270    3.4560 C.ar  200  HIS200      0.0817
    104  ND1       44.6300   36.5350    2.5430 N.ar  200  HIS200     -0.2268
    105  CD2       45.2310   35.0750    4.0520 C.ar  200  HIS200      0.1154
    106  CE1       43.6900   35.6090    2.5840 C.ar  200  HIS200      0.1986
    107  NE2       44.0290   34.7120    3.4920 N.ar  200  HIS200     -0.2212
    108  N         52.4740   30.2300    7.7600 N.3   219  VAL219     -0.1245
    109  CA        51.1560   29.6190    7.7070 C.3   219  VAL219      0.1561
    110  C         50.0450   30.5490    7.2060 C.2   219  VAL219      0.2260
    111  O         49.0690   30.0870    6.6170 O.2   219  VAL219     -0.2867
    112  CB        50.7670   29.0540    9.0930 C.3   219  VAL219      0.0252
    113  CG1       50.5520   30.1910   10.0820 C.3   219  VAL219      0.0019
    114  CG2       49.5260   28.1810    8.9700 C.3   219  VAL219      0.0019
    115  N         50.1650   32.5690    4.7770 N.3   221  TYR221     -0.1228
    116  CA        50.2760   32.8350    3.3470 C.3   221  TYR221      0.1721
    117  C         49.0740   32.2150    2.6300 C.2   221  TYR221      0.2437
    118  O         48.7780   31.0390    2.8130 O.2   221  TYR221     -0.2733
    119  CB        51.5830   32.2430    2.8020 C.3   221  TYR221      0.0547
    120  CG        51.9340   32.7160    1.4080 C.ar  221  TYR221     -0.0200
    121  CD1       52.3270   34.0320    1.1750 C.ar  221  TYR221     -0.0009
    122  CD2       51.8450   31.8570    0.3200 C.ar  221  TYR221     -0.0009
    123  CE1       52.6140   34.4790   -0.1090 C.ar  221  TYR221      0.0417
    124  CE2       52.1290   32.2920   -0.9610 C.ar  221  TYR221      0.0417
    125  CZ        52.5100   33.6010   -1.1730 C.ar  221  TYR221      0.1957
    126  OH        52.7680   34.0260   -2.4580 O.3   221  TYR221     -0.2866
    127  N         48.3670   33.0110    1.8120 N.am  222  PRO222     -0.2718
    128  CA        47.0900   32.6540    1.1790 C.3   222  PRO222      0.1535
    129  C         47.1300   31.7140   -0.0260 C.2   222  PRO222      0.2598
    130  O         46.2380   31.7700   -0.8640 O.2   222  PRO222     -0.2715
    131  CB        46.4880   34.0030    0.7990 C.3   222  PRO222      0.0310
    132  CG        47.6700   34.8650    0.5670 C.3   222  PRO222      0.0237
    133  CD        48.7050   34.4260    1.5770 C.3   222  PRO222      0.0939
    134  N         48.1460   30.8680   -0.1350 N.am  223  ILE223     -0.1964
    135  CA        48.0760   29.7620   -1.0950 C.3   223  ILE223      0.1727
    136  C         48.7370   28.5180   -0.5190 C.2   223  ILE223      0.2616
    137  O         49.7690   28.6050    0.1460 O.2   223  ILE223     -0.2715
    138  CB        48.7630   30.1000   -2.4550 C.3   223  ILE223      0.0290
    139  CG1       50.2780   29.9890   -2.3280 C.3   223  ILE223      0.0022
    140  CG2       48.3900   31.5010   -2.9120 C.3   223  ILE223      0.0023
    141  CD1       50.8250   28.6420   -2.7560 C.3   223  ILE223      0.0001
    142  N         48.1340   27.3600   -0.7720 N.am  224  ALA224     -0.1963
    143  CA        48.6330   26.1080   -0.2190 C.3   224  ALA224      0.1728
    144  C         49.8150   25.5860   -1.0270 C.2   224  ALA224      0.2616
    145  O         49.6780   24.6450   -1.8100 O.2   224  ALA224     -0.2715
    146  CB        47.5200   25.0660   -0.1930 C.3   224  ALA224      0.0334
    147  N         50.9790   26.1940   -0.8280 N.am  225  VAL225     -0.1977
    148  CA        52.1680   25.8040   -1.5700 C.3   225  VAL225      0.1596
    149  C         52.5930   24.3900   -1.1930 C.2   225  VAL225      0.2287
    150  O         52.7780   24.0770   -0.0180 O.2   225  VAL225     -0.2864
    151  CB        53.3330   26.7920   -1.3110 C.3   225  VAL225      0.0276
    152  CG1       53.5740   26.9410    0.1790 C.3   225  VAL225      0.0022
    153  CG2       54.5930   26.3080   -2.0080 C.3   225  VAL225      0.0022
@<TRIPOS>BOND
     1     8     7    1
     2     7     6    1
     3     6     5    1
     4     1     2    1
     5     2     5    1
     6     2     3    1
     7     3     4    2
     8     3     9   am
     9     9    10    1
    10    10    11    1
    11    11    13   am
    12    11    12    2
    13   140   138    1
    14   141   139    1
    15    13    14    1
    16   126   125    1
    17   138   139    1
    18   138   135    1
    19   153   151    1
    20    18    17    1
    21   145   144    2
    22   148   151    1
    23   148   149    1
    24   148   147    1
    25    14    17    1
    26    14    15    1
    27   151   152    1
    28   149   150    2
    29   125   124   ar
    30   125   123   ar
    31   135   136    1
    32   135   134    1
    33    17    19    1
    34   144   147   am
    35   144   143    1
    36   124   122   ar
    37   130   129    2
    38   142   136   am
    39   142   143    1
    40    16    15    2
    41   136   137    2
    42    15    20   am
    43   143   146    1
    44   134   129   am
    45   123   121   ar
    46   129   128    1
    47   122   120   ar
    48    53    51   ar
    49    27    25    1
    50   132   131    1
    51   132   133    1
    52    20    21    1
    53   131   128    1
    54    25    26    1
    55    25    24    1
    56    52    51   ar
    57   121   120   ar
    58   128   127    1
    59    51    50    1
    60   120   119    1
    61   133   127    1
    62    21    24    1
    63    21    22    1
    64   127   117   am
    65   104   106   ar
    66   104   103   ar
    67   106   107   ar
    68   117   118    2
    69   117   116    1
    70    50    49    1
    71   119   116    1
    72    22    28   am
    73    22    23    2
    74   116   115    1
    75    28    29    1
    76   103   102    1
    77   103   105   ar
    78   107   105   ar
    79    49    46    1
    80    31    30    2
    81   102    99    1
    82    38    37    1
    83    39    37    1
    84    30    29    1
    85    30    32   am
    86    68    66    1
    87    37    36    1
    88    36    33    1
    89    46    45    1
    90    46    47    1
    91    99   100    1
    92    99    98    1
    93   100   101    2
    94    77    78   ar
    95    77    75   ar
    96    78    76   ar
    97    32    33    1
    98    47    48    2
    99    33    34    1
   100    87    85   ar
   101    67    66    1
   102    60    59    1
   103    66    63    1
   104    75    74   ar
   105    76    74   ar
   106   111   110    2
   107    97    96   ar
   108    97    95   ar
   109    74    73    1
   110    63    62    1
   111    63    64    1
   112    85    86   ar
   113    85    84    1
   114    58    59    1
   115    58    55    1
   116    96    94   ar
   117    59    61    1
   118    62    56   am
   119    34    40   am
   120    34    35    2
   121   110   109    1
   122    73    70    1
   123    40    41    1
   124    95    93   ar
   125   109   108    1
   126   109   112    1
   127    56    55    1
   128    56    57    2
   129    84    83    1
   130    64    65    2
   131    94    93   ar
   132    55    54    1
   133    43    42    2
   134    93    92    1
   135   114   112    1
   136    41    42    1
   137    41    44    1
   138    70    71    1
   139    70    69    1
   140   112   113    1
   141    71    79   am
   142    71    72    2
   143    79    80    1
   144    83    80    1
   145    80    81    1
   146    92    89    1
   147    81    82    2
   148    89    88    1
   149    89    90    1
   150    90    91    2
