@<TRIPOS>MOLECULE
tmp/2oi2A00.pdb
 142 134 0 0 0
SMALL
GASTEIGER

@<TRIPOS>ATOM
      1  N         37.1540   27.9250   45.6930 N.3    10  LYS10      -0.1245
      2  CA        36.7880   28.6360   46.8950 C.3    10  LYS10       0.1561
      3  C         36.2420   27.6350   47.9170 C.2    10  LYS10       0.2260
      4  O         36.1710   26.4420   47.6260 O.2    10  LYS10      -0.2867
      5  CB        35.7560   29.7170   46.5400 C.3    10  LYS10       0.0271
      6  CG        34.3860   29.3890   46.9860 C.3    10  LYS10       0.0035
      7  CD        33.8810   28.1840   46.2310 C.3    10  LYS10       0.0206
      8  CE        32.6240   27.5550   46.8880 C.3    10  LYS10       0.1093
      9  NZ        32.0380   26.5520   45.9450 N.3    10  LYS10      -0.1314
     10  N         33.2030   27.4090   51.2560 N.3    12  ILE12      -0.1245
     11  CA        32.2020   28.1390   52.0000 C.3    12  ILE12       0.1561
     12  C         32.3910   28.0010   53.4890 C.2    12  ILE12       0.2260
     13  O         32.4050   26.9040   54.0210 O.2    12  ILE12      -0.2867
     14  CB        30.8010   27.6730   51.6440 C.3    12  ILE12       0.0252
     15  CG1       30.5750   27.8500   50.1480 C.3    12  ILE12       0.0019
     16  CG2       29.7960   28.4680   52.4250 C.3    12  ILE12       0.0019
     17  CD1       29.3220   27.2640   49.6870 C.3    12  ILE12       0.0001
     18  N         25.8420   27.6950   53.5500 N.3    16  GLU16      -0.1231
     19  CA        25.5090   26.6480   52.5700 C.3    16  GLU16       0.1699
     20  C         24.0160   26.4010   52.6090 C.2    16  GLU16       0.2592
     21  O         23.4160   26.4280   53.6730 O.2    16  GLU16      -0.2718
     22  CB        26.1340   25.2920   52.9200 C.3    16  GLU16       0.0402
     23  CG        27.6200   25.1930   52.9140 C.3    16  GLU16       0.1161
     24  CD        28.2180   25.5550   54.1950 C.2    16  GLU16       0.3649
     25  OE1       27.4910   25.9340   55.1190 O.co2  16  GLU16      -0.2457
     26  OE2       29.4380   25.4580   54.2680 O.co2  16  GLU16      -0.2457
     27  N         23.4190   26.0960   51.4760 N.am   17  HIS17      -0.1976
     28  CA        21.9870   25.8130   51.4690 C.3    17  HIS17       0.1656
     29  C         21.0560   26.9390   51.8830 C.2    17  HIS17       0.2291
     30  O         20.0750   27.1930   51.1790 O.2    17  HIS17      -0.2864
     31  CB        21.7420   24.5450   52.2640 C.3    17  HIS17       0.0771
     32  CG        22.1940   23.3230   51.5150 C.ar   17  HIS17       0.0820
     33  ND1       21.4220   22.7150   50.5520 N.ar   17  HIS17      -0.2267
     34  CD2       23.3880   22.7030   51.4970 C.ar   17  HIS17       0.1154
     35  CE1       22.1240   21.7650   49.9700 C.ar   17  HIS17       0.1986
     36  NE2       23.3320   21.7360   50.5300 N.ar   17  HIS17      -0.2212
     37  N         21.7650   30.0470   51.7660 N.3    19  VAL19      -0.1231
     38  CA        21.9630   31.1080   50.8000 C.3    19  VAL19       0.1692
     39  C         20.9170   30.9390   49.6950 C.2    19  VAL19       0.2591
     40  O         20.4530   31.9000   49.0840 O.2    19  VAL19      -0.2718
     41  CB        23.4100   31.0580   50.2120 C.3    19  VAL19       0.0266
     42  CG1       23.6200   29.7800   49.4110 C.3    19  VAL19       0.0020
     43  CG2       23.6770   32.2750   49.3540 C.3    19  VAL19       0.0020
     44  N         20.5240   29.7040   49.4630 N.am   20  VAL20      -0.1980
     45  CA        19.5500   29.4240   48.4290 C.3    20  VAL20       0.1595
     46  C         18.2340   30.1380   48.7370 C.2    20  VAL20       0.2287
     47  O         17.4360   30.3930   47.8460 O.2    20  VAL20      -0.2864
     48  CB        19.3190   27.8930   48.3200 C.3    20  VAL20       0.0276
     49  CG1       18.0820   27.5800   47.4990 C.3    20  VAL20       0.0022
     50  CG2       20.5110   27.2450   47.7030 C.3    20  VAL20       0.0022
     51  N         37.8270   21.4540   43.5950 N.3    83  GLY83      -0.1210
     52  CA        37.4050   22.3580   42.5460 C.3    83  GLY83       0.1956
     53  C         35.8900   22.3510   42.4960 C.2    83  GLY83       0.2613
     54  O         35.3040   21.2800   42.3790 O.2    83  GLY83      -0.2717
     55  N         35.2390   23.5040   42.5680 N.am   84  SER84      -0.1938
     56  CA        33.7780   23.5340   42.5480 C.3    84  SER84       0.2055
     57  C         33.1360   23.5110   41.1550 C.2    84  SER84       0.2643
     58  O         33.8180   23.5430   40.1230 O.2    84  SER84      -0.2714
     59  CB        33.2830   24.7650   43.2840 C.3    84  SER84       0.2130
     60  OG        33.3190   25.8600   42.3970 O.3    84  SER84      -0.2179
     61  N         31.8070   23.4660   41.1390 N.am   85  SER85      -0.1949
     62  CA        31.0590   23.4610   39.8950 C.3    85  SER85       0.1924
     63  C         31.4110   24.6920   39.0630 C.2    85  SER85       0.2314
     64  O         31.6850   24.5740   37.8770 O.2    85  SER85      -0.2863
     65  CB        29.5540   23.4110   40.1700 C.3    85  SER85       0.2116
     66  OG        29.1470   24.4530   41.0330 O.3    85  SER85      -0.2180
     67  N         22.2820   23.2370   38.3900 N.3   122  MET122     -0.1230
     68  CA        22.9630   23.2880   39.6640 C.3   122  MET122      0.1702
     69  C         22.2840   24.2140   40.6500 C.2   122  MET122      0.2592
     70  O         22.5740   24.1900   41.8470 O.2   122  MET122     -0.2718
     71  CB        24.3920   23.7380   39.4250 C.3   122  MET122      0.0401
     72  CG        25.1790   22.7460   38.6160 C.3   122  MET122      0.0596
     73  SD        25.1990   21.1510   39.4310 S.3   122  MET122     -0.1393
     74  CE        26.0460   21.5270   40.9650 C.3   122  MET122      0.0692
     75  N         21.3660   25.0170   40.1240 N.am  123  ASN123     -0.1961
     76  CA        20.6150   25.9890   40.8990 C.3   123  ASN123      0.1804
     77  C         21.5140   26.9430   41.6840 C.2   123  ASN123      0.2463
     78  O         21.3230   27.1540   42.8760 O.2   123  ASN123     -0.2730
     79  CB        19.6600   25.2520   41.8190 C.3   123  ASN123      0.1195
     80  CG        18.2920   25.0870   41.2040 C.2   123  ASN123      0.2630
     81  OD1       17.5090   26.0660   41.1310 O.2   123  ASN123     -0.2716
     82  ND2       17.9760   23.8500   40.7430 N.am  123  ASN123     -0.0877
     83  N         22.4870   27.5580   41.0070 N.am  124  PRO124     -0.2716
     84  CA        23.4230   28.4980   41.6400 C.3   124  PRO124      0.1536
     85  C         22.7370   29.6500   42.3630 C.2   124  PRO124      0.2599
     86  O         21.7780   30.2460   41.8570 O.2   124  PRO124     -0.2715
     87  CB        24.2500   29.0420   40.4570 C.3   124  PRO124      0.0310
     88  CG        24.0600   28.0410   39.3760 C.3   124  PRO124      0.0237
     89  CD        22.6440   27.5660   39.5400 C.3   124  PRO124      0.0939
     90  N         23.2540   29.9720   43.5420 N.am  125  SER125     -0.1936
     91  CA        22.7540   31.1010   44.3000 C.3   125  SER125      0.2055
     92  C         23.5460   32.2740   43.7220 C.2   125  SER125      0.2644
     93  O         23.2080   33.4530   43.9070 O.2   125  SER125     -0.2714
     94  CB        23.1180   30.9050   45.7450 C.3   125  SER125      0.2130
     95  OG        24.5210   30.7250   45.8530 O.3   125  SER125     -0.2179
     96  N         24.6020   31.9250   42.9900 N.am  126  GLY126     -0.1939
     97  CA        25.4950   32.9020   42.4240 C.3   126  GLY126      0.2014
     98  C         26.7570   32.9790   43.2910 C.2   126  GLY126      0.2639
     99  O         27.7190   33.6490   42.9440 O.2   126  GLY126     -0.2714
    100  N         26.7810   32.2590   44.3980 N.am  127  LEU127     -0.1963
    101  CA        27.9240   32.3320   45.3100 C.3   127  LEU127      0.1728
    102  C         29.2050   31.6220   44.9230 C.2   127  LEU127      0.2616
    103  O         30.2860   32.1170   45.1740 O.2   127  LEU127     -0.2715
    104  CB        27.5010   31.8540   46.7060 C.3   127  LEU127      0.0311
    105  CG        28.5960   31.7650   47.7670 C.3   127  LEU127      0.0022
    106  CD1       28.8860   33.1170   48.3100 C.3   127  LEU127      0.0001
    107  CD2       28.1820   30.8350   48.8560 C.3   127  LEU127      0.0001
    108  N         29.0610   30.4560   44.3090 N.am  128  ASP128     -0.1971
    109  CA        30.1760   29.6340   43.9120 C.3   128  ASP128      0.1709
    110  C         30.9400   30.4470   42.9030 C.2   128  ASP128      0.2293
    111  O         32.0860   30.8300   43.1270 O.2   128  ASP128     -0.2864
    112  CB        29.6220   28.3480   43.3100 C.3   128  ASP128      0.1436
    113  CG        30.6730   27.2940   43.0500 C.2   128  ASP128      0.3671
    114  OD1       31.8550   27.5240   43.3440 O.co2 128  ASP128     -0.2456
    115  OD2       30.3300   26.2140   42.5470 O.co2 128  ASP128     -0.2456
    116  N         30.2150   15.0240   45.8540 N.3   166  GLY166     -0.1225
    117  CA        29.0060   15.6640   46.3510 C.3   166  GLY166      0.1811
    118  C         27.7870   15.6520   45.4470 C.2   166  GLY166      0.2280
    119  O         27.8530   15.9850   44.2580 O.2   166  GLY166     -0.2866
    120  N         25.2140   17.6050   45.1230 N.3   168  THR168     -0.1218
    121  CA        24.6710   18.9210   45.4060 C.3   168  THR168      0.1862
    122  C         23.2250   19.1260   44.9780 C.2   168  THR168      0.2287
    123  O         22.4310   19.7080   45.7270 O.2   168  THR168     -0.2866
    124  CB        25.5590   20.0470   44.7930 C.3   168  THR168      0.1770
    125  OG1       26.8940   19.9920   45.3430 O.3   168  THR168     -0.2211
    126  CG2       24.9620   21.3890   45.1130 C.3   168  THR168      0.0375
    127  N         20.0180   20.0830   47.4090 N.3   172  ILE172     -0.1245
    128  CA        19.1060   21.2170   47.2710 C.3   172  ILE172      0.1561
    129  C         17.6730   20.6510   47.2800 C.2   172  ILE172      0.2260
    130  O         16.7870   21.2230   47.9030 O.2   172  ILE172     -0.2867
    131  CB        19.4000   22.0390   45.9680 C.3   172  ILE172      0.0252
    132  CG1       20.7510   22.7590   46.1060 C.3   172  ILE172      0.0019
    133  CG2       18.3240   23.0580   45.7380 C.3   172  ILE172      0.0019
    134  CD1       21.2770   23.3850   44.8590 C.3   172  ILE172      0.0001
    135  N         30.1000   23.4280   51.3750 N.3   248  GLY248     -0.1210
    136  CA        29.7040   23.1520   50.0010 C.3   248  GLY248      0.1956
    137  C         28.2840   22.6270   49.8440 C.2   248  GLY248      0.2612
    138  O         27.3820   22.9670   50.6100 O.2   248  GLY248     -0.2717
    139  N         28.0880   21.7500   48.8640 N.am  249  GLY249     -0.1956
    140  CA        26.7660   21.1980   48.6070 C.3   249  GLY249      0.1869
    141  C         26.2080   20.0840   49.4840 C.2   249  GLY249      0.2309
    142  O         25.0100   19.7970   49.4510 O.2   249  GLY249     -0.2863
@<TRIPOS>BOND
     1    64    63    2
     2    67    68    1
     3    72    71    1
     4    72    73    1
     5    63    62    1
     6    88    89    1
     7    88    87    1
     8    71    68    1
     9    73    74    1
    10    89    83    1
    11    68    69    1
    12    62    65    1
    13    62    61    1
    14    58    57    2
    15    75    69   am
    16    75    76    1
    17    65    66    1
    18    87    84    1
    19    69    70    2
    20    82    80   am
    21    76    77    1
    22    76    79    1
    23    83    84    1
    24    83    77   am
    25    81    80    2
    26    61    57   am
    27    57    56    1
    28    80    79    1
    29    84    85    1
    30    77    78    2
    31    86    85    2
    32    85    90   am
    33    54    53    2
    34    60    59    1
    35    97    96    1
    36    97    98    1
    37    53    52    1
    38    53    55   am
    39    52    51    1
    40   115   113   ar
    41    56    55    1
    42    56    59    1
    43   110   111    2
    44   110   109    1
    45    99    98    2
    46    96    92   am
    47   113   112    1
    48   113   114   ar
    49    98   100   am
    50   112   109    1
    51    90    91    1
    52    92    93    2
    53    92    91    1
    54   109   108    1
    55   119   118    2
    56    91    94    1
    57   108   102   am
    58   100   101    1
    59   124   126    1
    60   124   125    1
    61   124   121    1
    62   134   132    1
    63   102   103    2
    64   102   101    1
    65   122   121    1
    66   122   123    2
    67   120   121    1
    68   101   104    1
    69   118   117    1
    70     1     2    1
    71   133   131    1
    72    94    95    1
    73   116   117    1
    74     9     8    1
    75   131   132    1
    76   131   128    1
    77     7     8    1
    78     7     6    1
    79     5     2    1
    80     5     6    1
    81   104   105    1
    82     2     3    1
    83   128   129    1
    84   128   127    1
    85   129   130    2
    86    49    48    1
    87     4     3    2
    88    50    48    1
    89   105   106    1
    90   105   107    1
    91    47    46    2
    92    48    45    1
    93    45    46    1
    94    45    44    1
    95   140   139    1
    96   140   141    1
    97   139   137   am
    98    40    39    2
    99    43    41    1
   100    42    41    1
   101   142   141    2
   102    44    39   am
   103    17    15    1
   104    39    38    1
   105   137   136    1
   106   137   138    2
   107    35    36   ar
   108    35    33   ar
   109   136   135    1
   110    15    14    1
   111    41    38    1
   112    36    34   ar
   113    33    32   ar
   114    38    37    1
   115    30    29    2
   116    10    11    1
   117    28    27    1
   118    28    29    1
   119    28    31    1
   120    27    20   am
   121    34    32   ar
   122    32    31    1
   123    14    11    1
   124    14    16    1
   125    11    12    1
   126    19    20    1
   127    19    22    1
   128    19    18    1
   129    20    21    2
   130    23    22    1
   131    23    24    1
   132    12    13    2
   133    24    26   ar
   134    24    25   ar
