@<TRIPOS>MOLECULE
tmp/2oi3A00.pdb
 156 158 0 0 0
SMALL
GASTEIGER

@<TRIPOS>ATOM
      1  N         32.1020    6.4290  -48.8200 N.3    32  TYR32      -0.1241
      2  CA        30.8090    6.7920  -49.4090 C.3    32  TYR32       0.1605
      3  C         29.8030    5.6210  -49.3960 C.2    32  TYR32       0.2264
      4  O         30.1860    4.4590  -49.2670 O.2    32  TYR32      -0.2867
      5  CB        31.0670    7.2400  -50.8610 C.3    32  TYR32       0.0534
      6  CG        32.3800    7.9750  -51.1030 C.ar   32  TYR32      -0.0201
      7  CD1       32.6140    9.2340  -50.5180 C.ar   32  TYR32      -0.0009
      8  CD2       33.3970    7.3720  -51.8650 C.ar   32  TYR32      -0.0009
      9  CE1       33.8520    9.8780  -50.6890 C.ar   32  TYR32       0.0417
     10  CE2       34.6570    7.9760  -51.9720 C.ar   32  TYR32       0.0417
     11  CZ        34.8890    9.2450  -51.4050 C.ar   32  TYR32       0.1957
     12  OH        36.0960    9.8560  -51.5450 O.3    32  TYR32      -0.2866
     13  N         27.3080    2.8330  -50.9490 N.3    34  TYR34      -0.1241
     14  CA        27.4140    1.9600  -52.1270 C.3    34  TYR34       0.1605
     15  C         26.3250    0.8840  -52.1810 C.2    34  TYR34       0.2264
     16  O         26.0200    0.2320  -51.1820 O.2    34  TYR34      -0.2867
     17  CB        28.7700    1.2570  -52.1300 C.3    34  TYR34       0.0534
     18  CG        29.0540    0.4830  -53.4020 C.ar   34  TYR34      -0.0201
     19  CD1       29.3420    1.1560  -54.6030 C.ar   34  TYR34      -0.0009
     20  CD2       28.9620   -0.9180  -53.3930 C.ar   34  TYR34      -0.0009
     21  CE1       29.5000    0.4280  -55.7980 C.ar   34  TYR34       0.0417
     22  CE2       29.1130   -1.6540  -54.5830 C.ar   34  TYR34       0.0417
     23  CZ        29.3600   -0.9770  -55.7930 C.ar   34  TYR34       0.1957
     24  OH        29.4230   -1.6780  -56.9560 O.3    34  TYR34      -0.2866
     25  N         26.3660   -1.8690  -57.8400 N.3    37  ILE37      -0.1231
     26  CA        26.0930   -1.4130  -59.2170 C.3    37  ILE37       0.1692
     27  C         25.9680   -2.5940  -60.2070 C.2    37  ILE37       0.2592
     28  O         25.1480   -2.5640  -61.1290 O.2    37  ILE37      -0.2718
     29  CB        27.1810   -0.4050  -59.6820 C.3    37  ILE37       0.0266
     30  CG1       27.2150    0.8530  -58.7790 C.3    37  ILE37       0.0019
     31  CG2       26.9840    0.0210  -61.1510 C.3    37  ILE37       0.0020
     32  CD1       28.3060    1.8650  -59.1490 C.3    37  ILE37       0.0001
     33  N         26.7670   -3.6440  -59.9860 N.am   38  HIS38      -0.1962
     34  CA        26.8370   -4.8890  -60.7680 C.3    38  HIS38       0.1787
     35  C         26.9350   -6.1130  -59.8250 C.2    38  HIS38       0.2620
     36  O         26.9780   -5.9570  -58.6020 O.2    38  HIS38      -0.2715
     37  CB        27.9750   -4.7600  -61.8150 C.3    38  HIS38       0.0785
     38  CG        29.2030   -4.0150  -61.3360 C.ar   38  HIS38       0.0821
     39  ND1       29.5450   -2.7030  -61.6270 N.ar   38  HIS38      -0.2267
     40  CD2       30.1220   -4.4850  -60.4470 C.ar   38  HIS38       0.1154
     41  CE1       30.6300   -2.3790  -60.8890 C.ar   38  HIS38       0.1986
     42  NE2       31.0030   -3.4590  -60.1710 N.ar   38  HIS38      -0.2212
     43  N         26.8700   -7.3320  -60.3740 N.am   39  HIS39      -0.1959
     44  CA        26.7270   -8.5720  -59.5880 C.3    39  HIS39       0.1787
     45  C         27.9520   -8.9240  -58.7140 C.2    39  HIS39       0.2620
     46  O         29.0760   -8.4990  -58.9830 O.2    39  HIS39      -0.2715
     47  CB        26.3580   -9.7380  -60.5240 C.3    39  HIS39       0.0785
     48  CG        27.4490  -10.1520  -61.4850 C.ar   39  HIS39       0.0821
     49  ND1       27.5100   -9.8560  -62.8310 N.ar   39  HIS39      -0.2267
     50  CD2       28.5390  -10.9310  -61.1960 C.ar   39  HIS39       0.1154
     51  CE1       28.6140  -10.4310  -63.3370 C.ar   39  HIS39       0.1986
     52  NE2       29.2790  -11.0990  -62.3750 N.ar   39  HIS39      -0.2212
     53  N         27.7400   -9.7800  -57.7050 N.am   40  GLU40      -0.1963
     54  CA        28.7350  -10.2100  -56.7070 C.3    40  GLU40       0.1733
     55  C         29.4820   -9.0380  -56.0370 C.2    40  GLU40       0.2616
     56  O         30.7070   -8.9810  -56.0600 O.2    40  GLU40      -0.2715
     57  CB        29.6470  -11.3200  -57.2830 C.3    40  GLU40       0.0429
     58  CG        30.1160  -12.2890  -56.1950 C.3    40  GLU40       0.1163
     59  CD        30.8110  -13.5360  -56.7820 C.2    40  GLU40       0.3649
     60  OE1       31.6810  -13.4070  -57.6780 O.co2  40  GLU40      -0.2457
     61  OE2       30.4870  -14.6680  -56.3450 O.co2  40  GLU40      -0.2457
     62  N         28.7610   -8.0850  -55.4370 N.am   41  ASP41      -0.1971
     63  CA        29.3300   -7.0170  -54.6240 C.3    41  ASP41       0.1709
     64  C         28.4660   -6.8240  -53.3950 C.2    41  ASP41       0.2293
     65  O         27.2450   -7.0200  -53.3960 O.2    41  ASP41      -0.2864
     66  CB        29.4360   -5.6830  -55.3730 C.3    41  ASP41       0.1436
     67  CG        30.4840   -5.7200  -56.4850 C.2    41  ASP41       0.3671
     68  OD1       31.6940   -5.9020  -56.2230 O.co2  41  ASP41      -0.2456
     69  OD2       30.1060   -5.6140  -57.6700 O.co2  41  ASP41      -0.2456
     70  N         40.3090  -10.2520  -49.1370 N.3    54  GLU54      -0.1245
     71  CA        41.2550  -10.2940  -50.2550 C.3    54  GLU54       0.1567
     72  C         41.4550   -8.9090  -50.8740 C.2    54  GLU54       0.2260
     73  O         40.5080   -8.1420  -51.0250 O.2    54  GLU54      -0.2867
     74  CB        40.8020  -11.2790  -51.3420 C.3    54  GLU54       0.0388
     75  CG        41.0110  -12.7540  -50.9800 C.3    54  GLU54       0.1160
     76  CD        42.4820  -13.1510  -50.7170 C.2    54  GLU54       0.3649
     77  OE1       43.4180  -12.4610  -51.1910 O.co2  54  GLU54      -0.2457
     78  OE2       42.7120  -14.1980  -50.0610 O.co2  54  GLU54      -0.2457
     79  N         43.8090   -7.7460  -54.1050 N.3    56  SER56      -0.1202
     80  CA        44.6230   -8.2200  -55.2440 C.3    56  SER56       0.2020
     81  C         44.2760   -7.5220  -56.5720 C.2    56  SER56       0.2619
     82  O         44.5000   -8.0610  -57.6600 O.2    56  SER56      -0.2717
     83  CB        44.4510   -9.7410  -55.3760 C.3    56  SER56       0.2103
     84  OG        45.4740  -10.3110  -56.1790 O.3    56  SER56      -0.2182
     85  N         43.6700   -6.3400  -56.4840 N.am   57  GLY57      -0.1942
     86  CA        43.0570   -5.6220  -57.5980 C.3    57  GLY57       0.2014
     87  C         42.3580   -4.3510  -57.1090 C.2    57  GLY57       0.2639
     88  O         42.4730   -3.9860  -55.9360 O.2    57  GLY57      -0.2714
     89  N         41.6290   -3.6650  -57.9910 N.am   58  GLU58      -0.1963
     90  CA        40.8810   -2.4530  -57.6140 C.3    58  GLU58       0.1733
     91  C         39.6140   -2.7500  -56.7870 C.2    58  GLU58       0.2616
     92  O         39.0680   -1.8450  -56.1520 O.2    58  GLU58      -0.2715
     93  CB        40.5450   -1.6040  -58.8490 C.3    58  GLU58       0.0429
     94  CG        41.7770   -1.2970  -59.7130 C.3    58  GLU58       0.1163
     95  CD        41.5280   -0.1430  -60.7050 C.2    58  GLU58       0.3649
     96  OE1       40.6150   -0.2400  -61.5610 O.co2  58  GLU58      -0.2457
     97  OE2       42.2750    0.8670  -60.6540 O.co2  58  GLU58      -0.2457
     98  N         39.1790   -4.0110  -56.7210 N.am   59  TRP59      -0.1974
     99  CA        38.0640   -4.4710  -55.8930 C.3    59  TRP59       0.1640
    100  C         38.5420   -5.5330  -54.9080 C.2    59  TRP59       0.2290
    101  O         39.3160   -6.4290  -55.2510 O.2    59  TRP59      -0.2864
    102  CB        36.9260   -5.0220  -56.7600 C.3    59  TRP59       0.0576
    103  CG        36.3230   -4.0480  -57.7190 C.ar   59  TRP59       0.0006
    104  CD1       36.9150   -3.6270  -58.8600 C.ar   59  TRP59       0.0946
    105  CD2       35.0270   -3.3670  -57.6520 C.ar   59  TRP59       0.0152
    106  NE1       36.0870   -2.7360  -59.5050 N.ar   59  TRP59      -0.2442
    107  CE2       34.9080   -2.5470  -58.8180 C.ar   59  TRP59       0.0810
    108  CE3       33.9370   -3.3590  -56.7440 C.ar   59  TRP59       0.0012
    109  CZ2       33.7710   -1.7720  -59.0850 C.ar   59  TRP59       0.0191
    110  CZ3       32.7890   -2.5860  -57.0150 C.ar   59  TRP59       0.0001
    111  CH2       32.7050   -1.7980  -58.1740 C.ar   59  TRP59       0.0015
    112  N         32.4380   -8.6020  -52.5750 N.3    72  TYR72      -0.1241
    113  CA        33.4600   -7.6940  -53.1170 C.3    72  TYR72       0.1605
    114  C         33.0270   -6.2370  -52.9750 C.2    72  TYR72       0.2264
    115  O         31.8350   -5.9310  -52.9380 O.2    72  TYR72      -0.2867
    116  CB        33.8170   -8.0050  -54.5690 C.3    72  TYR72       0.0534
    117  CG        34.3880   -9.3930  -54.7140 C.ar   72  TYR72      -0.0201
    118  CD1       35.7240   -9.6280  -54.3460 C.ar   72  TYR72      -0.0009
    119  CD2       33.5660  -10.4600  -55.1100 C.ar   72  TYR72      -0.0009
    120  CE1       36.2410  -10.9340  -54.3570 C.ar   72  TYR72       0.0417
    121  CE2       34.0830  -11.7610  -55.1810 C.ar   72  TYR72       0.0417
    122  CZ        35.4220  -12.0090  -54.7900 C.ar   72  TYR72       0.1957
    123  OH        35.9070  -13.2810  -54.7970 O.3    72  TYR72      -0.2866
    124  N         34.5050   -1.8320  -53.8220 N.3    74  PRO74      -0.2102
    125  CA        35.3960   -0.9290  -54.5300 C.3    74  PRO74       0.1504
    126  C         36.4280   -0.2780  -53.6000 C.2    74  PRO74       0.2576
    127  O         36.0690    0.4300  -52.6580 O.2    74  PRO74      -0.2718
    128  CB        34.4550    0.1080  -55.1330 C.3    74  PRO74       0.0282
    129  CG        33.1220    0.0350  -54.3850 C.3    74  PRO74       0.0208
    130  CD        33.2460   -1.1880  -53.5150 C.3    74  PRO74       0.0893
    131  N         37.7230   -0.4540  -53.8790 N.am   75  SER75      -0.1938
    132  CA        38.7910    0.1600  -53.0660 C.3    75  SER75       0.2055
    133  C         38.8230    1.6990  -53.1300 C.2    75  SER75       0.2643
    134  O         39.2430    2.3350  -52.1650 O.2    75  SER75      -0.2714
    135  CB        40.1650   -0.4150  -53.4220 C.3    75  SER75       0.2130
    136  OG        40.5110   -0.1380  -54.7650 O.3    75  SER75      -0.2179
    137  N         38.3300    2.3250  -54.2120 N.am   76  ASN76      -0.1957
    138  CA        38.2200    3.7930  -54.3200 C.3    76  ASN76       0.1819
    139  C         37.2000    4.4010  -53.3360 C.2    76  ASN76       0.2621
    140  O         37.2770    5.5840  -53.0070 O.2    76  ASN76      -0.2715
    141  CB        37.9210    4.1960  -55.7810 C.3    76  ASN76       0.1195
    142  CG        36.4890    4.1030  -56.2410 C.2    76  ASN76       0.2630
    143  OD1       35.7450    3.2640  -55.7820 O.2    76  ASN76      -0.2716
    144  ND2       36.1050    4.8720  -57.2300 N.am   76  ASN76      -0.0877
    145  N         36.2610    3.5870  -52.8490 N.am   77  TYR77      -0.1974
    146  CA        35.1610    3.9610  -51.9660 C.3    77  TYR77       0.1639
    147  C         35.4830    3.8140  -50.4960 C.2    77  TYR77       0.2290
    148  O         34.5830    3.8520  -49.6590 O.2    77  TYR77      -0.2864
    149  CB        33.9610    3.0820  -52.3390 C.3    77  TYR77       0.0560
    150  CG        32.9040    3.8170  -53.1000 C.ar   77  TYR77      -0.0198
    151  CD1       33.2610    4.4930  -54.2700 C.ar   77  TYR77      -0.0009
    152  CD2       31.5740    3.8040  -52.6690 C.ar   77  TYR77      -0.0009
    153  CE1       32.2970    5.1210  -55.0570 C.ar   77  TYR77       0.0417
    154  CE2       30.5950    4.4420  -53.4400 C.ar   77  TYR77       0.0417
    155  CZ        30.9440    5.1040  -54.6420 C.ar   77  TYR77       0.1957
    156  OH        29.9860    5.7230  -55.3770 O.3    77  TYR77      -0.2866
@<TRIPOS>BOND
     1    51    49   ar
     2    51    52   ar
     3    49    48   ar
     4    52    50   ar
     5    37    38    1
     6    37    34    1
     7    39    38   ar
     8    39    41   ar
     9    96    95   ar
    10    48    50   ar
    11    48    47    1
    12    38    40   ar
    13    31    29    1
    14    28    27    2
    15    41    42   ar
    16    34    33    1
    17    34    35    1
    18    95    97   ar
    19    95    94    1
    20    47    44    1
    21    40    42   ar
    22    43    35   am
    23    43    44    1
    24    27    33   am
    25    27    26    1
    26    35    36    2
    27    94    93    1
    28    29    26    1
    29    29    30    1
    30    44    45    1
    31   106   104   ar
    32   106   107   ar
    33    26    25    1
    34    32    30    1
    35   109   107   ar
    36   109   111   ar
    37    46    45    2
    38   104   103   ar
    39    93    90    1
    40   107   105   ar
    41    45    53   am
    42   111   110   ar
    43    89    90    1
    44    89    87   am
    45   103   105   ar
    46   103   102    1
    47    53    54    1
    48    60    59   ar
    49    69    67   ar
    50    82    81    2
    51   105   108   ar
    52    90    91    1
    53    86    87    1
    54    86    85    1
    55    57    54    1
    56    57    58    1
    57   144   142   am
    58    87    88    2
    59   110   108   ar
    60    24    23    1
    61    91    98   am
    62    91    92    2
    63    59    61   ar
    64    59    58    1
    65   102    99    1
    66    98    99    1
    67    54    55    1
    68    81    85   am
    69    81    80    1
    70    67    68   ar
    71    67    66    1
    72   142   143    2
    73   142   141    1
    74    84    83    1
    75    56    55    2
    76    55    62   am
    77    99   100    1
    78    21    23   ar
    79    21    19   ar
    80    23    22   ar
    81   141   138    1
    82    62    63    1
    83   156   155    1
    84    83    80    1
    85    66    63    1
    86   101   100    2
    87    80    79    1
    88   121   119   ar
    89   121   122   ar
    90   128   125    1
    91   128   129    1
    92   119   117   ar
    93   153   155   ar
    94   153   151   ar
    95   123   122    1
    96   122   120   ar
    97   136   135    1
    98   117   116    1
    99   117   118   ar
   100   155   154   ar
   101    63    64    1
   102    19    18   ar
   103    22    20   ar
   104   116   113    1
   105   125   124    1
   106   125   126    1
   107   129   130    1
   108   120   118   ar
   109   138   137    1
   110   138   139    1
   111   151   150   ar
   112   137   133   am
   113   131   126   am
   114   131   132    1
   115   124   130    1
   116   126   127    2
   117   154   152   ar
   118   135   132    1
   119    18    20   ar
   120    18    17    1
   121    65    64    2
   122   139   140    2
   123   139   145   am
   124   133   132    1
   125   133   134    2
   126   113   114    1
   127   113   112    1
   128   150   152   ar
   129   150   149    1
   130   114   115    2
   131   145   146    1
   132   149   146    1
   133    15    14    1
   134    15    16    2
   135    17    14    1
   136    14    13    1
   137    10     8   ar
   138    10    11   ar
   139   146   147    1
   140     8     6   ar
   141    12    11    1
   142    11     9   ar
   143    74    75    1
   144    74    71    1
   145    77    76   ar
   146     6     5    1
   147     6     7   ar
   148    73    72    2
   149    75    76    1
   150    72    71    1
   151     5     2    1
   152    76    78   ar
   153     9     7   ar
   154   147   148    2
   155    71    70    1
   156     2     3    1
   157     2     1    1
   158     3     4    2
