@<TRIPOS>MOLECULE
tmp/2oi4A01.pdb
 138 128 0 0 0
SMALL
GASTEIGER

@<TRIPOS>ATOM
      1  N        -16.8550  -25.5070   -5.2050 N.3    17  GLY17      -0.1210
      2  CA       -16.6220  -24.4970   -4.1510 C.3    17  GLY17       0.1956
      3  C        -16.8070  -25.0120   -2.7270 C.2    17  GLY17       0.2611
      4  O        -16.3380  -24.3890   -1.7630 O.2    17  GLY17      -0.2717
      5  N        -17.5290  -26.1190   -2.5960 N.am   18  PHE18      -0.1976
      6  CA       -17.6770  -26.8470   -1.3600 C.3    18  PHE18       0.1639
      7  C        -16.4750  -27.6830   -0.9270 C.2    18  PHE18       0.2290
      8  O        -16.4610  -28.1970    0.1750 O.2    18  PHE18      -0.2864
      9  CB       -18.8980  -27.7700   -1.4340 C.3    18  PHE18       0.0560
     10  CG       -18.9700  -28.5670   -2.6750 C.ar   18  PHE18      -0.0200
     11  CD1      -19.6810  -28.0990   -3.7850 C.ar   18  PHE18      -0.0042
     12  CD2      -18.3840  -29.8290   -2.7340 C.ar   18  PHE18      -0.0042
     13  CE1      -19.7060  -28.8550   -4.9520 C.ar   18  PHE18      -0.0003
     14  CE2      -18.4250  -30.5750   -3.8730 C.ar   18  PHE18      -0.0003
     15  CZ       -19.0980  -30.0900   -4.9910 C.ar   18  PHE18      -0.0000
     16  N        -15.5500  -35.1790    2.9690 N.3    36  LYS36      -0.1245
     17  CA       -15.4690  -33.9270    2.3040 C.3    36  LYS36       0.1561
     18  C        -14.3030  -33.1430    2.9070 C.2    36  LYS36       0.2260
     19  O        -14.1860  -32.9360    4.1320 O.2    36  LYS36      -0.2867
     20  CB       -16.7880  -33.1470    2.4300 C.3    36  LYS36       0.0271
     21  CG       -16.8010  -31.8990    1.5570 C.3    36  LYS36       0.0035
     22  CD       -18.0880  -31.1360    1.6640 C.3    36  LYS36       0.0206
     23  CE       -18.1040  -30.2840    2.9320 C.3    36  LYS36       0.1093
     24  NZ       -17.3720  -29.0080    2.7350 N.3    36  LYS36      -0.1314
     25  N        -11.7320  -29.6980    2.5360 N.3    38  VAL38      -0.1245
     26  CA       -11.6230  -28.2840    2.1190 C.3    38  VAL38       0.1561
     27  C        -10.2840  -27.6890    2.6160 C.2    38  VAL38       0.2260
     28  O         -9.8870  -27.8480    3.7800 O.2    38  VAL38      -0.2867
     29  CB       -12.8920  -27.4100    2.4940 C.3    38  VAL38       0.0252
     30  CG1      -12.9120  -27.1660    3.9700 C.3    38  VAL38       0.0019
     31  CG2      -12.8550  -26.0270    1.7620 C.3    38  VAL38       0.0019
     32  N         -8.8350  -21.9810    1.6520 N.3    42  ARG42      -0.1231
     33  CA       -10.0700  -21.7210    0.8800 C.3    42  ARG42       0.1694
     34  C        -11.3290  -21.5180    1.7400 C.2    42  ARG42       0.2592
     35  O        -12.4390  -21.4450    1.2030 O.2    42  ARG42      -0.2718
     36  CB       -10.2950  -22.8160   -0.1960 C.3    42  ARG42       0.0321
     37  CG        -9.2310  -22.8660   -1.3300 C.3    42  ARG42       0.0489
     38  CD        -9.2560  -24.2390   -2.0920 C.3    42  ARG42       0.2205
     39  NE        -8.2420  -24.3920   -3.1650 N.pl3  42  ARG42      -0.0865
     40  CZ        -7.9380  -25.5470   -3.7790 C.cat  42  ARG42       0.5346
     41  NH1       -6.9960  -25.6210   -4.7350 N.pl3  42  ARG42       0.1354
     42  NH2       -8.5580  -26.6490   -3.4110 N.pl3  42  ARG42       0.1354
     43  N        -11.1580  -21.3800    3.0540 N.am   43  ILE43      -0.1966
     44  CA       -12.2900  -21.2290    3.9640 C.3    43  ILE43       0.1727
     45  C        -12.5290  -19.7470    4.2660 C.2    43  ILE43       0.2616
     46  O        -11.7230  -19.0940    4.9710 O.2    43  ILE43      -0.2715
     47  CB       -12.1130  -22.0550    5.2750 C.3    43  ILE43       0.0290
     48  CG1      -12.1970  -23.5500    4.9820 C.3    43  ILE43       0.0022
     49  CG2      -13.2300  -21.7560    6.2740 C.3    43  ILE43       0.0023
     50  CD1      -11.5970  -24.3770    6.0880 C.3    43  ILE43       0.0001
     51  N        -13.6230  -19.2090    3.7210 N.am   44  SER44      -0.1950
     52  CA       -13.9530  -17.7630    3.8820 C.3    44  SER44       0.1924
     53  C        -14.5030  -17.4400    5.2780 C.2    44  SER44       0.2314
     54  O        -14.1650  -16.4130    5.8510 O.2    44  SER44      -0.2863
     55  CB       -14.4920  -17.2320    2.6030 C.3    44  SER44       0.2116
     56  OG       -15.1850  -18.2110    1.8210 O.3    44  SER44      -0.2180
     57  N        -14.3210  -24.3350   10.8620 N.3    56  PRO56      -0.2116
     58  CA       -15.1870  -23.6740    9.8960 C.3    56  PRO56       0.1372
     59  C        -16.6360  -23.4610   10.4030 C.2    56  PRO56       0.2244
     60  O        -17.2300  -24.3460   11.0130 O.2    56  PRO56      -0.2868
     61  CB       -15.1520  -24.6500    8.7220 C.3    56  PRO56       0.0268
     62  CG       -13.9030  -25.3020    8.8370 C.3    56  PRO56       0.0207
     63  CD       -13.6380  -25.4920   10.2680 C.3    56  PRO56       0.0892
     64  N        -19.1420  -24.0190    8.8240 N.3    58  GLU58      -0.1245
     65  CA       -19.8950  -25.1610    8.3100 C.3    58  GLU58       0.1567
     66  C        -20.0520  -26.2450    9.3670 C.2    58  GLU58       0.2260
     67  O        -21.0860  -26.8470    9.4570 O.2    58  GLU58      -0.2867
     68  CB       -19.2750  -25.7330    6.9900 C.3    58  GLU58       0.0388
     69  CG       -20.0420  -26.9380    6.4070 C.3    58  GLU58       0.1160
     70  CD       -19.4990  -27.6070    5.1160 C.2    58  GLU58       0.3649
     71  OE1      -18.3040  -27.4830    4.7920 O.co2  58  GLU58      -0.2457
     72  OE2      -20.2820  -28.3740    4.4760 O.co2  58  GLU58      -0.2457
     73  N         -9.5990  -29.1150    6.5660 N.3    85  PHE85      -0.1241
     74  CA       -10.6090  -29.8270    7.3860 C.3    85  PHE85       0.1605
     75  C        -11.2810  -30.9650    6.6010 C.2    85  PHE85       0.2264
     76  O        -11.5650  -30.8090    5.4170 O.2    85  PHE85      -0.2867
     77  CB       -11.6870  -28.8690    7.9120 C.3    85  PHE85       0.0534
     78  CG       -11.2190  -27.9900    9.0650 C.ar   85  PHE85      -0.0203
     79  CD1      -11.3640  -28.4150   10.3860 C.ar   85  PHE85      -0.0042
     80  CD2      -10.5850  -26.7730    8.8200 C.ar   85  PHE85      -0.0042
     81  CE1      -10.9050  -27.6290   11.4300 C.ar   85  PHE85      -0.0003
     82  CE2      -10.1090  -25.9930    9.8420 C.ar   85  PHE85      -0.0003
     83  CZ       -10.2790  -26.4070   11.1710 C.ar   85  PHE85      -0.0000
     84  N        -14.7070  -33.4640    6.9430 N.3    87  LEU87      -0.1245
     85  CA       -16.0050  -33.8090    7.5310 C.3    87  LEU87       0.1561
     86  C        -16.4400  -35.1740    7.0320 C.2    87  LEU87       0.2260
     87  O        -16.2630  -35.5060    5.8590 O.2    87  LEU87      -0.2867
     88  CB       -17.0700  -32.7780    7.1420 C.3    87  LEU87       0.0270
     89  CG       -17.0150  -31.4000    7.8330 C.3    87  LEU87       0.0019
     90  CD1      -15.6420  -30.8930    7.9860 C.3    87  LEU87       0.0001
     91  CD2      -17.8310  -30.4470    7.0190 C.3    87  LEU87       0.0001
     92  N        -28.2610  -21.9680    0.2920 N.3   136  ASP136     -0.1239
     93  CA       -28.0380  -22.5380   -1.0430 C.3   136  ASP136      0.1674
     94  C        -28.9880  -23.7120   -1.2900 C.2   136  ASP136      0.2266
     95  O        -28.5630  -24.7650   -1.7510 O.2   136  ASP136     -0.2867
     96  CB       -26.5570  -22.9900   -1.1850 C.3   136  ASP136      0.1410
     97  CG       -26.1140  -23.1600   -2.6270 C.2   136  ASP136      0.3668
     98  OD1      -25.0640  -23.8060   -2.8070 O.co2 136  ASP136     -0.2456
     99  OD2      -26.8010  -22.6510   -3.5790 O.co2 136  ASP136     -0.2456
    100  N        -31.2800  -25.7490   -3.4340 N.3   138  LYS138     -0.1245
    101  CA       -31.3980  -25.9380   -4.8650 C.3   138  LYS138      0.1561
    102  C        -31.4500  -27.4180   -5.1140 C.2   138  LYS138      0.2260
    103  O        -31.1350  -28.1990   -4.2000 O.2   138  LYS138     -0.2867
    104  CB       -30.2390  -25.2560   -5.6410 C.3   138  LYS138      0.0271
    105  CG       -28.8970  -25.8290   -5.3770 C.3   138  LYS138      0.0035
    106  CD       -27.8390  -25.1970   -6.2620 C.3   138  LYS138      0.0206
    107  CE       -26.4810  -25.7200   -5.8210 C.3   138  LYS138      0.1093
    108  NZ       -25.3140  -25.0470   -6.5650 N.3   138  LYS138     -0.1314
    109  N        -24.7610  -29.5430    2.0220 N.3   155  ASP155     -0.1239
    110  CA       -24.0090  -28.3610    1.6460 C.3   155  ASP155      0.1674
    111  C        -24.4840  -27.0950    2.3440 C.2   155  ASP155      0.2266
    112  O        -25.0740  -26.1640    1.7270 O.2   155  ASP155     -0.2867
    113  CB       -23.8830  -28.1870    0.1210 C.3   155  ASP155      0.1410
    114  CG       -22.8220  -27.1100   -0.2630 C.2   155  ASP155      0.3668
    115  OD1      -22.0870  -26.6560    0.6250 O.co2 155  ASP155     -0.2456
    116  OD2      -22.7060  -26.7300   -1.4510 O.co2 155  ASP155     -0.2456
    117  N        -22.2090  -25.1630    3.5200 N.3   157  GLY157     -0.1210
    118  CA       -20.9360  -24.4560    3.6090 C.3   157  GLY157      0.1956
    119  C        -21.0240  -22.9910    3.2640 C.2   157  GLY157      0.2612
    120  O        -20.0870  -22.2720    3.5040 O.2   157  GLY157     -0.2717
    121  N        -22.1590  -22.5460    2.7070 N.am  158  SER158     -0.1952
    122  CA       -22.4220  -21.1150    2.6100 C.3   158  SER158      0.1924
    123  C        -23.5500  -20.6020    3.4930 C.2   158  SER158      0.2314
    124  O        -24.0650  -19.5260    3.2320 O.2   158  SER158     -0.2863
    125  CB       -22.7540  -20.7360    1.1680 C.3   158  SER158      0.2116
    126  OG       -21.5940  -20.9380    0.3740 O.3   158  SER158     -0.2180
    127  N        -23.0470  -15.9800   -1.0260 N.3   171  ASP171     -0.1225
    128  CA       -22.1620  -16.7190   -1.8910 C.3   171  ASP171      0.1805
    129  C        -22.8230  -18.0840   -2.1080 C.2   171  ASP171      0.2598
    130  O        -22.1790  -19.1260   -2.1020 O.2   171  ASP171     -0.2718
    131  CB       -20.7660  -16.8490   -1.2580 C.3   171  ASP171      0.1424
    132  CG       -19.7520  -17.5990   -2.1740 C.2   171  ASP171      0.3668
    133  OD1      -19.1260  -18.6010   -1.7690 O.co2 171  ASP171     -0.2456
    134  OD2      -19.5870  -17.2000   -3.3290 O.co2 171  ASP171     -0.2456
    135  N        -24.1350  -18.0760   -2.3200 N.am  172  GLY172     -0.1957
    136  CA       -24.8770  -19.2880   -2.6180 C.3   172  GLY172      0.1869
    137  C        -24.8870  -19.3370   -4.1220 C.2   172  GLY172      0.2309
    138  O        -23.9120  -18.9150   -4.7180 O.2   172  GLY172     -0.2863
@<TRIPOS>BOND
     1   108   107    1
     2   106   107    1
     3   106   105    1
     4   104   105    1
     5   104   101    1
     6     1     2    1
     7   102   101    1
     8   102   103    2
     9    15    13   ar
    10    15    14   ar
    11    13    11   ar
    12   101   100    1
    13    41    40    1
    14   138   137    2
    15     2     3    1
    16   137   136    1
    17    14    12   ar
    18    11    10   ar
    19    40    42    1
    20    40    39    2
    21    99    97   ar
    22   134   132   ar
    23    39    38    1
    24    98    97   ar
    25    12    10   ar
    26     3     5   am
    27     3     4    2
    28    10     9    1
    29    97    96    1
    30   136   135    1
    31     5     6    1
    32   135   129   am
    33   132   133   ar
    34   132   131    1
    35   129   130    2
    36   129   128    1
    37    38    37    1
    38   128   131    1
    39   128   127    1
    40    95    94    2
    41   116   114   ar
    42     9     6    1
    43     6     7    1
    44    37    36    1
    45    94    93    1
    46    96    93    1
    47    93    92    1
    48     7     8    2
    49   114   113    1
    50   114   115   ar
    51    36    33    1
    52   113   110    1
    53   126   125    1
    54    33    32    1
    55    33    34    1
    56   125   122    1
    57    35    34    2
    58    21    22    1
    59    21    20    1
    60   110   109    1
    61   110   111    1
    62    22    23    1
    63   112   111    2
    64    34    43   am
    65    31    29    1
    66    56    55    1
    67    26    29    1
    68    26    25    1
    69    26    27    1
    70    17    20    1
    71    17    18    1
    72    17    16    1
    73    29    30    1
    74    55    52    1
    75   122   121    1
    76   122   123    1
    77    27    28    2
    78   121   119   am
    79    24    23    1
    80    18    19    2
    81    43    44    1
    82   124   123    2
    83   119   120    2
    84   119   118    1
    85   117   118    1
    86    51    52    1
    87    51    45   am
    88    52    53    1
    89    44    45    1
    90    44    47    1
    91    45    46    2
    92    72    70   ar
    93    71    70   ar
    94    48    47    1
    95    48    50    1
    96    70    69    1
    97    47    49    1
    98    53    54    2
    99    76    75    2
   100    87    86    2
   101    69    68    1
   102    73    74    1
   103    75    74    1
   104    84    85    1
   105    68    65    1
   106    91    89    1
   107    86    85    1
   108    88    85    1
   109    88    89    1
   110    74    77    1
   111    89    90    1
   112    77    78    1
   113    65    64    1
   114    65    66    1
   115    61    62    1
   116    61    58    1
   117    80    78   ar
   118    80    82   ar
   119    62    63    1
   120    78    79   ar
   121    66    67    2
   122    82    83   ar
   123    58    59    1
   124    58    57    1
   125    63    57    1
   126    79    81   ar
   127    59    60    2
   128    83    81   ar
