@<TRIPOS>MOLECULE
tmp/2oi6B01.pdb
 114 108 0 0 0
SMALL
GASTEIGER

@<TRIPOS>ATOM
      1  N          3.7110   51.3930  232.1520 N.3   361  HIS361     -0.1241
      2  CA         3.6260   52.8450  232.2340 C.3   361  HIS361      0.1621
      3  C          2.5460   53.5710  231.4360 C.2   361  HIS361      0.2264
      4  O          2.2680   53.2150  230.2880 O.2   361  HIS361     -0.2867
      5  CB         4.9740   53.5140  231.8400 C.3   361  HIS361      0.0745
      6  CG         6.0900   52.5650  231.4910 C.ar  361  HIS361      0.0817
      7  ND1        7.2740   52.5160  232.2000 N.ar  361  HIS361     -0.2268
      8  CD2        6.1690   51.5740  230.5700 C.ar  361  HIS361      0.1154
      9  CE1        8.0310   51.5260  231.7450 C.ar  361  HIS361      0.1986
     10  NE2        7.3780   50.9370  230.7580 N.ar  361  HIS361     -0.2212
     11  N          3.7100   42.1470  226.2480 N.3   375  ASN375     -0.1240
     12  CA         4.3470   43.3600  226.7310 C.3   375  ASN375      0.1653
     13  C          3.5650   44.5540  226.1530 C.2   375  ASN375      0.2266
     14  O          3.4440   44.6920  224.9270 O.2   375  ASN375     -0.2867
     15  CB         5.7940   43.3730  226.2770 C.3   375  ASN375      0.1155
     16  CG         6.6290   44.3840  227.0390 C.2   375  ASN375      0.2627
     17  OD1        6.5920   45.6220  226.7750 O.2   375  ASN375     -0.2716
     18  ND2        7.4080   43.8790  227.9950 N.am  375  ASN375     -0.0877
     19  N          3.5840   48.3880  225.7130 N.3   377  GLY377     -0.1210
     20  CA         4.4270   49.5870  225.7870 C.3   377  GLY377      0.1956
     21  C          3.7420   50.7800  226.4500 C.2   377  GLY377      0.2611
     22  O          2.5100   50.8770  226.4850 O.2   377  GLY377     -0.2717
     23  N          4.5380   51.6860  226.9980 N.am  378  ALA378     -0.1979
     24  CA         4.0400   52.8950  227.6610 C.3   378  ALA378      0.1597
     25  C          3.1190   53.6790  226.7540 C.2   378  ALA378      0.2287
     26  O          3.3400   53.7160  225.5500 O.2   378  ALA378     -0.2864
     27  CB         5.2020   53.7670  228.0060 C.3   378  ALA378      0.0319
     28  N          3.7900   41.8870  221.3520 N.3   400  PHE400     -0.1227
     29  CA         4.5760   43.0350  221.7790 C.3   400  PHE400      0.1736
     30  C          3.8260   44.3130  221.2910 C.2   400  PHE400      0.2595
     31  O          3.7680   44.5850  220.0720 O.2   400  PHE400     -0.2718
     32  CB         5.9540   42.9510  221.1460 C.3   400  PHE400      0.0547
     33  CG         6.9050   43.9890  221.6380 C.ar  400  PHE400     -0.0202
     34  CD1        7.5320   43.8270  222.8710 C.ar  400  PHE400     -0.0042
     35  CD2        7.1630   45.1450  220.8940 C.ar  400  PHE400     -0.0042
     36  CE1        8.4160   44.8150  223.3730 C.ar  400  PHE400     -0.0003
     37  CE2        8.0360   46.1470  221.3710 C.ar  400  PHE400     -0.0003
     38  CZ         8.6680   45.9810  222.6200 C.ar  400  PHE400     -0.0000
     39  N          3.2540   45.1050  222.2060 N.am  401  VAL401     -0.1966
     40  CA         2.5250   46.3120  221.7880 C.3   401  VAL401      0.1727
     41  C          3.4150   47.5410  221.8720 C.2   401  VAL401      0.2617
     42  O          3.8110   47.9300  222.9560 O.2   401  VAL401     -0.2715
     43  CB         1.2470   46.5380  222.6390 C.3   401  VAL401      0.0290
     44  CG1        0.5280   47.7390  222.1380 C.3   401  VAL401      0.0023
     45  CG2        0.2860   45.3260  222.4980 C.3   401  VAL401      0.0023
     46  N          3.7480   48.1350  220.7370 N.am  402  GLY402     -0.1940
     47  CA         4.5900   49.3190  220.7800 C.3   402  GLY402      0.2014
     48  C          3.9690   50.4610  221.5830 C.2   402  GLY402      0.2639
     49  O          2.7400   50.6070  221.7260 O.2   402  GLY402     -0.2714
     50  N          4.8410   51.2800  222.1000 N.am  403  SER403     -0.1949
     51  CA         4.3850   52.3650  222.9220 C.3   403  SER403      0.1924
     52  C          3.4720   53.3800  222.1880 C.2   403  SER403      0.2314
     53  O          3.5300   53.5810  220.9620 O.2   403  SER403     -0.2863
     54  CB         5.6260   52.9930  223.5830 C.3   403  SER403      0.2116
     55  OG         6.1930   53.8450  222.6380 O.3   403  SER403     -0.2180
     56  N          3.2490   41.7800  216.5170 N.3   418  THR418     -0.1203
     57  CA         3.9700   42.9490  216.9950 C.3   418  THR418      0.1994
     58  C          3.2310   44.2020  216.5130 C.2   418  THR418      0.2618
     59  O          2.8150   44.3080  215.3270 O.2   418  THR418     -0.2717
     60  CB         5.4300   42.9440  216.4780 C.3   418  THR418      0.1784
     61  OG1        6.0890   41.7500  216.8950 O.3   418  THR418     -0.2211
     62  CG2        6.1900   44.1850  216.9590 C.3   418  THR418      0.0376
     63  N          3.0280   45.1560  217.4010 N.am  419  ILE419     -0.1965
     64  CA         2.3810   46.4080  216.9590 C.3   419  ILE419      0.1727
     65  C          3.4070   47.5350  217.0500 C.2   419  ILE419      0.2616
     66  O          4.0020   47.7360  218.1000 O.2   419  ILE419     -0.2715
     67  CB         1.1580   46.7480  217.8190 C.3   419  ILE419      0.0290
     68  CG1        0.1420   45.6150  217.6650 C.3   419  ILE419      0.0022
     69  CG2        0.5160   48.0630  217.3250 C.3   419  ILE419      0.0023
     70  CD1       -0.9090   45.7150  218.6850 C.3   419  ILE419      0.0001
     71  N          3.6410   48.2350  215.9360 N.am  420  ALA420     -0.1963
     72  CA         4.6110   49.3600  215.8760 C.3   420  ALA420      0.1728
     73  C          4.2260   50.4950  216.8450 C.2   420  ALA420      0.2616
     74  O          3.0380   50.7330  217.0850 O.2   420  ALA420     -0.2715
     75  CB         4.6840   49.9250  214.4150 C.3   420  ALA420      0.0334
     76  N          5.2150   51.2130  217.3700 N.am  421  ALA421     -0.1977
     77  CA         4.9130   52.3270  218.2910 C.3   421  ALA421      0.1597
     78  C          4.0960   53.3450  217.4960 C.2   421  ALA421      0.2287
     79  O          4.3510   53.5240  216.3070 O.2   421  ALA421     -0.2864
     80  CB         6.2350   53.0020  218.8050 C.3   421  ALA421      0.0319
     81  N          3.2480   42.0390  211.8730 N.3   434  LEU434     -0.1245
     82  CA         3.5190   43.3810  212.3600 C.3   434  LEU434      0.1561
     83  C          2.3590   44.3240  211.9010 C.2   434  LEU434      0.2260
     84  O          2.0320   44.4010  210.7080 O.2   434  LEU434     -0.2867
     85  CB         4.8640   43.9170  211.8360 C.3   434  LEU434      0.0270
     86  CG         5.1450   45.4360  212.0480 C.3   434  LEU434      0.0019
     87  CD1        5.5120   45.6310  213.5430 C.3   434  LEU434      0.0001
     88  CD2        6.3270   45.9570  211.1920 C.3   434  LEU434      0.0001
     89  N          1.0600   48.2020  211.6150 N.3   436  ILE436     -0.1245
     90  CA         1.6380   49.5240  211.5870 C.3   436  ILE436      0.1561
     91  C          0.7720   50.6000  210.8820 C.2   436  ILE436      0.2260
     92  O         -0.0370   50.2690  210.0450 O.2   436  ILE436     -0.2867
     93  CB         3.0540   49.4480  210.9570 C.3   436  ILE436      0.0252
     94  CG1        3.7410   50.8090  211.0120 C.3   436  ILE436      0.0019
     95  CG2        3.0100   48.9970  209.4710 C.3   436  ILE436      0.0019
     96  CD1        5.2490   50.6480  210.7330 C.3   436  ILE436      0.0001
     97  N          2.0550   54.3130  210.1220 N.3   438  ARG438     -0.1245
     98  CA         2.8370   55.4920  210.3620 C.3   438  ARG438      0.1563
     99  C          3.3260   56.2500  209.1780 C.2   438  ARG438      0.2260
    100  O          3.5420   55.6810  208.0850 O.2   438  ARG438     -0.2867
    101  CB         4.0170   55.1420  211.2690 C.3   438  ARG438      0.0307
    102  CG         5.2030   54.5480  210.6220 C.3   438  ARG438      0.0489
    103  CD         6.4960   54.6590  211.5330 C.3   438  ARG438      0.2205
    104  NE         6.3260   54.1250  212.9050 N.pl3 438  ARG438     -0.0865
    105  CZ         7.1190   53.2200  213.5180 C.cat 438  ARG438      0.5346
    106  NH1        8.1660   52.7160  212.9060 N.pl3 438  ARG438      0.1354
    107  NH2        6.8520   52.7710  214.7440 N.pl3 438  ARG438      0.1354
    108  N          6.1910   58.2900  207.3810 N.3   440  PRO440     -0.2116
    109  CA         7.6590   58.2640  207.4730 C.3   440  PRO440      0.1372
    110  C          8.0920   59.6090  207.9890 C.2   440  PRO440      0.2244
    111  O          7.4730   60.6400  207.6870 O.2   440  PRO440     -0.2868
    112  CB         8.1060   58.0780  206.0270 C.3   440  PRO440      0.0268
    113  CG         6.9650   57.2570  205.4260 C.3   440  PRO440      0.0207
    114  CD         5.7380   57.9360  206.0210 C.3   440  PRO440      0.0892
@<TRIPOS>BOND
     1   113   114    1
     2   113   112    1
     3   114   108    1
     4   112   109    1
     5   108   109    1
     6   109   110    1
     7   111   110    2
     8   100    99    2
     9    99    98    1
    10    95    93    1
    11    92    91    2
    12    97    98    1
    13    98   101    1
    14   102   101    1
    15   102   103    1
    16    84    83    2
    17    96    94    1
    18    91    90    1
    19    93    94    1
    20    93    90    1
    21    88    86    1
    22   103   104    1
    23    90    89    1
    24    85    86    1
    25    85    82    1
    26    81    82    1
    27    83    82    1
    28    86    87    1
    29   104   105    2
    30   106   105    1
    31   105   107    1
    32    75    72    1
    33    59    58    2
    34    72    71    1
    35    72    73    1
    36    71    65   am
    37    79    78    2
    38    60    61    1
    39    60    62    1
    40    60    57    1
    41    58    57    1
    42    58    63   am
    43    56    57    1
    44    73    74    2
    45    73    76   am
    46    64    65    1
    47    64    63    1
    48    64    67    1
    49    65    66    2
    50    69    67    1
    51    76    77    1
    52    78    77    1
    53    68    67    1
    54    68    70    1
    55    77    80    1
    56    31    30    2
    57    46    47    1
    58    46    41   am
    59    47    48    1
    60    35    37   ar
    61    35    33   ar
    62    53    52    2
    63    32    33    1
    64    32    29    1
    65    30    29    1
    66    30    39   am
    67    28    29    1
    68    37    38   ar
    69    48    49    2
    70    48    50   am
    71    33    34   ar
    72    40    41    1
    73    40    39    1
    74    40    43    1
    75    41    42    2
    76    50    51    1
    77    44    43    1
    78    52    51    1
    79    45    43    1
    80    38    36   ar
    81    55    54    1
    82    34    36   ar
    83    51    54    1
    84    14    13    2
    85    26    25    2
    86    19    20    1
    87    20    21    1
    88    13    12    1
    89    11    12    1
    90    15    12    1
    91    15    16    1
    92    21    22    2
    93    21    23   am
    94    25    24    1
    95    17    16    2
    96    23    24    1
    97    16    18   am
    98    24    27    1
    99     4     3    2
   100     8    10   ar
   101     8     6   ar
   102    10     9   ar
   103     3     2    1
   104     6     5    1
   105     6     7   ar
   106     9     7   ar
   107     5     2    1
   108     1     2    1
