@<TRIPOS>MOLECULE
tmp/2oi7B00.pdb
 75 72 0 0 0
SMALL
GASTEIGER

@<TRIPOS>ATOM
      1  N          2.6560   42.2820  235.5660 N.3   341  HIS341     -0.1241
      2  CA         3.2080   43.5200  236.0970 C.3   341  HIS341      0.1621
      3  C          2.5680   44.7900  235.5310 C.2   341  HIS341      0.2264
      4  O          2.4280   44.9410  234.3170 O.2   341  HIS341     -0.2867
      5  CB         4.7110   43.5770  235.8340 C.3   341  HIS341      0.0745
      6  CG         5.2850   44.9520  235.9540 C.ar  341  HIS341      0.0817
      7  ND1        5.4560   45.5910  237.1690 N.ar  341  HIS341     -0.2268
      8  CD2        5.7010   45.8290  235.0050 C.ar  341  HIS341      0.1154
      9  CE1        5.9550   46.7980  236.9610 C.ar  341  HIS341      0.1986
     10  NE2        6.1120   46.9660  235.6590 N.ar  341  HIS341     -0.2212
     11  N          3.0100   42.4740  230.7820 N.3   358  LYS358     -0.1245
     12  CA         3.2770   43.7020  231.4940 C.3   358  LYS358      0.1561
     13  C          2.8490   44.9720  230.7850 C.2   358  LYS358      0.2260
     14  O          2.9200   45.0660  229.5670 O.2   358  LYS358     -0.2867
     15  CB         4.7670   43.7760  231.8290 C.3   358  LYS358      0.0271
     16  CG         5.6200   43.1220  230.7850 C.3   358  LYS358      0.0035
     17  CD         7.1090   43.2960  231.0610 C.3   358  LYS358      0.0206
     18  CE         7.5880   42.5800  232.3270 C.3   358  LYS358      0.1093
     19  NZ         9.0870   42.6200  232.4640 N.3   358  LYS358     -0.1314
     20  N          3.7900   48.6220  231.8860 N.3   360  GLY360     -0.1210
     21  CA         4.5460   49.4300  232.8060 C.3   360  GLY360      0.1956
     22  C          4.4030   50.9340  232.8980 C.2   360  GLY360      0.2611
     23  O          4.8700   51.4950  233.8890 O.2   360  GLY360     -0.2717
     24  N          3.7840   51.6090  231.9280 N.am  361  HIS361     -0.1975
     25  CA         3.7060   53.0610  232.0200 C.3   361  HIS361      0.1656
     26  C          2.6500   53.7580  231.1990 C.2   361  HIS361      0.2291
     27  O          2.3980   53.3840  230.0640 O.2   361  HIS361     -0.2864
     28  CB         5.0500   53.6910  231.6360 C.3   361  HIS361      0.0771
     29  CG         6.1160   52.7030  231.2810 C.ar  361  HIS361      0.0820
     30  ND1        7.2890   52.5930  231.9890 N.ar  361  HIS361     -0.2267
     31  CD2        6.1780   51.7650  230.3090 C.ar  361  HIS361      0.1154
     32  CE1        8.0320   51.6340  231.4710 C.ar  361  HIS361      0.1986
     33  NE2        7.3790   51.1150  230.4480 N.ar  361  HIS361     -0.2212
     34  N          3.5950   42.2550  225.9460 N.3   375  ASN375     -0.1225
     35  CA         4.2350   43.4840  226.3880 C.3   375  ASN375      0.1785
     36  C          3.4820   44.7200  225.8850 C.2   375  ASN375      0.2597
     37  O          3.4510   44.9620  224.6890 O.2   375  ASN375     -0.2718
     38  CB         5.6800   43.5440  225.8930 C.3   375  ASN375      0.1169
     39  CG         6.4430   44.7070  226.5080 C.2   375  ASN375      0.2627
     40  OD1        6.3740   45.8510  226.0260 O.2   375  ASN375     -0.2716
     41  ND2        7.1620   44.4280  227.5910 N.am  375  ASN375     -0.0877
     42  N          2.8820   45.4790  226.7990 N.am  376  ILE376     -0.1966
     43  CA         2.1400   46.7080  226.4570 C.3   376  ILE376      0.1727
     44  C          3.0730   47.9250  226.5510 C.2   376  ILE376      0.2617
     45  O          3.4520   48.3510  227.6370 O.2   376  ILE376     -0.2715
     46  CB         0.9450   46.9280  227.4270 C.3   376  ILE376      0.0290
     47  CG1        0.0190   45.7060  227.4380 C.3   376  ILE376      0.0022
     48  CG2        0.1470   48.1140  227.0070 C.3   376  ILE376      0.0023
     49  CD1       -0.6530   45.3590  226.1070 C.3   376  ILE376      0.0001
     50  N          3.4460   48.4790  225.4050 N.am  377  GLY377     -0.1940
     51  CA         4.3370   49.6270  225.4180 C.3   377  GLY377      0.2014
     52  C          3.7070   50.8060  226.1280 C.2   377  GLY377      0.2638
     53  O          2.5000   50.9170  226.1810 O.2   377  GLY377     -0.2714
     54  N          4.5280   51.6850  226.6740 N.am  378  ALA378     -0.1977
     55  CA         4.0220   52.8400  227.3870 C.3   378  ALA378      0.1597
     56  C          3.1780   53.6770  226.4810 C.2   378  ALA378      0.2287
     57  O          3.4490   53.7690  225.2900 O.2   378  ALA378     -0.2864
     58  CB         5.1680   53.6580  227.8820 C.3   378  ALA378      0.0319
     59  N          3.6640   42.0040  221.0820 N.3   400  PHE400     -0.1241
     60  CA         4.4220   43.1850  221.4610 C.3   400  PHE400      0.1605
     61  C          3.7060   44.4510  220.9450 C.2   400  PHE400      0.2264
     62  O          3.6320   44.6970  219.7440 O.2   400  PHE400     -0.2867
     63  CB         5.8210   43.1050  220.8820 C.3   400  PHE400      0.0534
     64  CG         6.6560   44.3010  221.1760 C.ar  400  PHE400     -0.0203
     65  CD1        7.3320   44.4030  222.3950 C.ar  400  PHE400     -0.0042
     66  CD2        6.8340   45.3090  220.2170 C.ar  400  PHE400     -0.0042
     67  CE1        8.1880   45.4950  222.6690 C.ar  400  PHE400     -0.0003
     68  CE2        7.6920   46.4150  220.4560 C.ar  400  PHE400     -0.0003
     69  CZ         8.3730   46.5090  221.6890 C.ar  400  PHE400     -0.0000
     70  N          4.9750   51.4640  221.7590 N.3   403  SER403     -0.1217
     71  CA         4.6230   52.6100  222.5760 C.3   403  SER403      0.1889
     72  C          3.6080   53.5430  221.9210 C.2   403  SER403      0.2288
     73  O          3.5900   53.6880  220.7010 O.2   403  SER403     -0.2866
     74  CB         5.8800   53.3990  222.9110 C.3   403  SER403      0.2089
     75  OG         6.9000   52.5490  223.4060 O.3   403  SER403     -0.2183
@<TRIPOS>BOND
     1    62    61    2
     2    66    68   ar
     3    66    64   ar
     4    68    69   ar
     5    73    72    2
     6    63    64    1
     7    63    60    1
     8    61    60    1
     9    59    60    1
    10    64    65   ar
    11    69    67   ar
    12    70    71    1
    13    72    71    1
    14    65    67   ar
    15    71    74    1
    16    74    75    1
    17    37    36    2
    18    57    56    2
    19    50    51    1
    20    50    44   am
    21    51    52    1
    22    36    35    1
    23    36    42   am
    24    38    35    1
    25    38    39    1
    26    34    35    1
    27    40    39    2
    28    49    47    1
    29    52    53    2
    30    52    54   am
    31    43    44    1
    32    43    42    1
    33    43    46    1
    34    56    55    1
    35    39    41   am
    36    44    45    2
    37    54    55    1
    38    48    46    1
    39    55    58    1
    40    46    47    1
    41    14    13    2
    42    27    26    2
    43    31    33   ar
    44    31    29   ar
    45    33    32   ar
    46    11    12    1
    47    16    17    1
    48    16    15    1
    49    13    12    1
    50    17    18    1
    51    26    25    1
    52    29    28    1
    53    29    30   ar
    54    32    30   ar
    55    12    15    1
    56    28    25    1
    57    20    21    1
    58    24    25    1
    59    24    22   am
    60    18    19    1
    61    21    22    1
    62    22    23    2
    63     4     3    2
    64     8    10   ar
    65     8     6   ar
    66     3     2    1
    67     1     2    1
    68    10     9   ar
    69     5     6    1
    70     5     2    1
    71     6     7   ar
    72     9     7   ar
