@<TRIPOS>MOLECULE
tmp/2oigA00.pdb
 111 109 0 0 0
SMALL
GASTEIGER

@<TRIPOS>ATOM
      1  N         52.9790  135.6130   84.2900 N.3    17  HIS17      -0.1241
      2  CA        54.3310  135.1670   84.5780 C.3    17  HIS17       0.1621
      3  C         55.1620  136.2560   85.2020 C.2    17  HIS17       0.2264
      4  O         56.3220  136.0470   85.5510 O.2    17  HIS17      -0.2867
      5  CB        55.0680  134.6290   83.3550 C.3    17  HIS17       0.0745
      6  CG        56.4020  134.0530   83.7060 C.ar   17  HIS17       0.0817
      7  ND1       56.5320  132.9480   84.5170 N.ar   17  HIS17      -0.2268
      8  CD2       57.6570  134.5200   83.5070 C.ar   17  HIS17       0.1154
      9  CE1       57.8060  132.7650   84.8120 C.ar   17  HIS17       0.1986
     10  NE2       58.5100  133.7080   84.2120 N.ar   17  HIS17      -0.2212
     11  N         53.4880  136.0600   88.9940 N.3    20  PHE20      -0.1241
     12  CA        53.9920  134.7930   89.5020 C.3    20  PHE20       0.1605
     13  C         55.4100  134.9230   90.0220 C.2    20  PHE20       0.2264
     14  O         55.6620  134.8060   91.2210 O.2    20  PHE20      -0.2867
     15  CB        53.9620  133.7470   88.3900 C.3    20  PHE20       0.0534
     16  CG        54.2540  132.3570   88.8560 C.ar   20  PHE20      -0.0203
     17  CD1       53.2250  131.5190   89.2880 C.ar   20  PHE20      -0.0042
     18  CD2       55.5560  131.8820   88.8650 C.ar   20  PHE20      -0.0042
     19  CE1       53.4960  130.2170   89.7230 C.ar   20  PHE20      -0.0003
     20  CE2       55.8380  130.5940   89.2950 C.ar   20  PHE20      -0.0003
     21  CZ        54.8100  129.7540   89.7260 C.ar   20  PHE20      -0.0000
     22  N         61.1060  136.1550   92.0610 N.3    26  TRP26      -0.1241
     23  CA        61.7090  135.5630   90.8550 C.3    26  TRP26       0.1605
     24  C         61.8330  136.5570   89.6760 C.2    26  TRP26       0.2264
     25  O         61.8500  136.1300   88.5240 O.2    26  TRP26      -0.2867
     26  CB        60.8730  134.3900   90.3370 C.3    26  TRP26       0.0550
     27  CG        60.9080  133.1150   91.1360 C.ar   26  TRP26       0.0003
     28  CD1       61.6520  132.8480   92.2520 C.ar   26  TRP26       0.0946
     29  CD2       60.2020  131.9030   90.8230 C.ar   26  TRP26       0.0152
     30  NE1       61.4510  131.5420   92.6460 N.ar   26  TRP26      -0.2442
     31  CE2       60.5670  130.9420   91.7890 C.ar   26  TRP26       0.0810
     32  CE3       59.2940  131.5400   89.8180 C.ar   26  TRP26       0.0012
     33  CZ2       60.0630  129.6350   91.7800 C.ar   26  TRP26       0.0191
     34  CZ3       58.7950  130.2420   89.8080 C.ar   26  TRP26       0.0001
     35  CH2       59.1800  129.3040   90.7880 C.ar   26  TRP26       0.0015
     36  N         66.0100  137.7650   88.6440 N.3    29  PHE29      -0.1227
     37  CA        66.7160  136.8810   87.7300 C.3    29  PHE29       0.1736
     38  C         66.2780  137.0050   86.3070 C.2    29  PHE29       0.2595
     39  O         66.4140  136.0280   85.6200 O.2    29  PHE29      -0.2718
     40  CB        66.4680  135.4230   88.0820 C.3    29  PHE29       0.0547
     41  CG        66.7840  135.1110   89.4510 C.ar   29  PHE29      -0.0202
     42  CD1       65.7940  135.1040   90.4150 C.ar   29  PHE29      -0.0042
     43  CD2       68.1020  135.0120   89.8230 C.ar   29  PHE29      -0.0042
     44  CE1       66.1270  135.0320   91.7400 C.ar   29  PHE29      -0.0003
     45  CE2       68.4510  134.9410   91.1260 C.ar   29  PHE29      -0.0003
     46  CZ        67.4690  134.9530   92.0950 C.ar   29  PHE29      -0.0000
     47  N         65.7280  138.1350   85.8760 N.am   30  HIS30      -0.1975
     48  CA        65.2760  138.2740   84.5170 C.3    30  HIS30       0.1656
     49  C         66.1470  139.2840   83.8160 C.2    30  HIS30       0.2291
     50  O         65.7390  140.3970   83.4520 O.2    30  HIS30      -0.2864
     51  CB        63.7850  138.6400   84.4970 C.3    30  HIS30       0.0771
     52  CG        62.9260  137.5670   85.0880 C.ar   30  HIS30       0.0820
     53  ND1       61.5460  137.5430   85.0030 N.ar   30  HIS30      -0.2267
     54  CD2       63.2830  136.4070   85.6870 C.ar   30  HIS30       0.1154
     55  CE1       61.1000  136.4050   85.5120 C.ar   30  HIS30       0.1986
     56  NE2       62.1360  135.6970   85.9310 N.ar   30  HIS30      -0.2212
     57  N         65.5400  124.4650   79.1040 N.3    42  GLU42      -0.1245
     58  CA        64.2190  123.8600   78.9520 C.3    42  GLU42       0.1567
     59  C         64.0340  123.4750   77.5020 C.2    42  GLU42       0.2260
     60  O         63.1660  122.6920   77.1590 O.2    42  GLU42      -0.2867
     61  CB        63.1010  124.8360   79.3840 C.3    42  GLU42       0.0388
     62  CG        63.0700  125.2590   80.8940 C.3    42  GLU42       0.1160
     63  CD        62.7210  124.1310   81.8810 C.2    42  GLU42       0.3649
     64  OE1       61.5680  123.6270   81.8610 O.co2  42  GLU42      -0.2457
     65  OE2       63.6140  123.7540   82.6860 O.co2  42  GLU42      -0.2457
     66  N         65.1030  119.7920   77.7780 N.3    45  GLU45      -0.1245
     67  CA        64.2980  118.7410   78.3430 C.3    45  GLU45       0.1567
     68  C         63.4000  118.3060   77.2230 C.2    45  GLU45       0.2260
     69  O         63.2280  117.1240   76.9960 O.2    45  GLU45      -0.2867
     70  CB        63.5090  119.2660   79.5400 C.3    45  GLU45       0.0388
     71  CG        64.4160  119.6400   80.6590 C.3    45  GLU45       0.1160
     72  CD        63.6980  120.0610   81.8970 C.2    45  GLU45       0.3649
     73  OE1       62.4540  120.0510   81.8900 O.co2  45  GLU45      -0.2457
     74  OE2       64.3900  120.4010   82.8780 O.co2  45  GLU45      -0.2457
     75  N         57.0210  120.7900   79.3850 N.3    74  GLU74      -0.1245
     76  CA        58.1520  121.3640   78.6700 C.3    74  GLU74       0.1567
     77  C         57.7150  122.3490   77.5860 C.2    74  GLU74       0.2260
     78  O         58.2560  123.4450   77.4660 O.2    74  GLU74      -0.2867
     79  CB        58.9920  120.2500   78.0440 C.3    74  GLU74       0.0388
     80  CG        59.4750  119.1950   79.0170 C.3    74  GLU74       0.1160
     81  CD        60.2140  119.7740   80.2060 C.2    74  GLU74       0.3649
     82  OE1       60.6540  120.9460   80.1370 O.co2  74  GLU74      -0.2457
     83  OE2       60.3600  119.0390   81.2080 O.co2  74  GLU74      -0.2457
     84  N         56.9650  125.3150   79.5360 N.3    77  ASP77      -0.1239
     85  CA        58.0820  125.9580   80.2220 C.3    77  ASP77       0.1674
     86  C         58.9690  126.6110   79.1830 C.2    77  ASP77       0.2266
     87  O         59.6850  127.5400   79.4890 O.2    77  ASP77      -0.2867
     88  CB        58.9180  124.9520   81.0140 C.3    77  ASP77       0.1410
     89  CG        58.1840  124.3870   82.2090 C.2    77  ASP77       0.3668
     90  OD1       57.6190  125.1830   82.9950 O.co2  77  ASP77      -0.2456
     91  OD2       58.1880  123.1420   82.3720 O.co2  77  ASP77      -0.2456
     92  N         57.2880  129.9130   78.2110 N.3    80  ILE80      -0.1231
     93  CA        57.3660  130.8080   79.3560 C.3    80  ILE80       0.1692
     94  C         58.7050  131.5500   79.4530 C.2    80  ILE80       0.2592
     95  O         58.7640  132.7440   79.7520 O.2    80  ILE80      -0.2718
     96  CB        57.1010  129.9930   80.6480 C.3    80  ILE80       0.0266
     97  CG1       55.6010  129.7100   80.7690 C.3    80  ILE80       0.0019
     98  CG2       57.6290  130.7140   81.8550 C.3    80  ILE80       0.0020
     99  CD1       55.2190  128.7290   81.8450 C.3    80  ILE80       0.0001
    100  N         59.7910  130.8450   79.2040 N.am   81  TYR81      -0.1976
    101  CA        61.0600  131.4920   79.2890 C.3    81  TYR81       0.1639
    102  C         61.2140  132.3150   78.0400 C.2    81  TYR81       0.2290
    103  O         61.8200  133.3860   78.0640 O.2    81  TYR81      -0.2864
    104  CB        62.1480  130.4460   79.4330 C.3    81  TYR81       0.0560
    105  CG        62.3470  130.0240   80.8710 C.ar   81  TYR81      -0.0198
    106  CD1       62.8070  128.7490   81.2060 C.ar   81  TYR81      -0.0009
    107  CD2       62.1140  130.9140   81.9040 C.ar   81  TYR81      -0.0009
    108  CE1       63.0320  128.3830   82.5520 C.ar   81  TYR81       0.0417
    109  CE2       62.3370  130.5600   83.2380 C.ar   81  TYR81       0.0417
    110  CZ        62.7940  129.3080   83.5530 C.ar   81  TYR81       0.1957
    111  OH        63.0450  129.0260   84.8700 O.3    81  TYR81      -0.2866
@<TRIPOS>BOND
     1    69    68    2
     2    60    59    2
     3    68    67    1
     4    78    77    2
     5    59    58    1
     6    77    76    1
     7    66    67    1
     8   102   103    2
     9   102   101    1
    10    79    76    1
    11    79    80    1
    12    92    93    1
    13    67    70    1
    14    76    75    1
    15    58    57    1
    16    58    61    1
    17    80    81    1
    18    86    87    2
    19    86    85    1
    20   100   101    1
    21   100    94   am
    22   101   104    1
    23    93    94    1
    24    93    96    1
    25    61    62    1
    26   104   105    1
    27    94    95    2
    28    84    85    1
    29    70    71    1
    30    82    81   ar
    31    81    83   ar
    32    85    88    1
    33    96    97    1
    34    96    98    1
    35    71    72    1
    36    97    99    1
    37   105   106   ar
    38   105   107   ar
    39    62    63    1
    40    88    89    1
    41   106   108   ar
    42    64    63   ar
    43    63    65   ar
    44    73    72   ar
    45    72    74   ar
    46   107   109   ar
    47    89    91   ar
    48    89    90   ar
    49   108   110   ar
    50   109   110   ar
    51     5     6    1
    52     5     2    1
    53    50    49    2
    54     8     6   ar
    55     8    10   ar
    56   110   111    1
    57     6     7   ar
    58    49    48    1
    59    10     9   ar
    60     1     2    1
    61    51    48    1
    62    51    52    1
    63     7     9   ar
    64    48    47    1
    65     2     3    1
    66    53    52   ar
    67    53    55   ar
    68    52    54   ar
    69     3     4    2
    70    55    56   ar
    71    39    38    2
    72    54    56   ar
    73    47    38   am
    74    38    37    1
    75    37    40    1
    76    37    36    1
    77    40    41    1
    78    15    16    1
    79    15    12    1
    80    25    24    2
    81    16    18   ar
    82    16    17   ar
    83    18    20   ar
    84    11    12    1
    85    17    19   ar
    86    20    21   ar
    87    41    43   ar
    88    41    42   ar
    89    12    13    1
    90    24    23    1
    91    19    21   ar
    92    34    32   ar
    93    34    35   ar
    94    32    29   ar
    95    43    45   ar
    96    13    14    2
    97    26    23    1
    98    26    27    1
    99    42    44   ar
   100    35    33   ar
   101    29    27   ar
   102    29    31   ar
   103    23    22    1
   104    45    46   ar
   105    27    28   ar
   106    44    46   ar
   107    33    31   ar
   108    31    30   ar
   109    28    30   ar
