@<TRIPOS>MOLECULE
tmp/2oilA00.pdb
 145 140 0 0 0
SMALL
GASTEIGER

@<TRIPOS>ATOM
      1  N         23.2470   35.1790    8.2550 N.3    15  SER15      -0.1202
      2  CA        23.9650   34.5260    9.3340 C.3    15  SER15       0.2020
      3  C         25.4900   34.5990    9.1610 C.2    15  SER15       0.2619
      4  O         26.0250   34.7070    8.0370 O.2    15  SER15      -0.2717
      5  CB        23.4630   33.1000    9.6250 C.3    15  SER15       0.2103
      6  OG        23.5940   32.2680    8.5170 O.3    15  SER15      -0.2182
      7  N         26.1770   34.6280   10.2920 N.am   16  GLY16      -0.1942
      8  CA        27.6300   34.7360   10.2920 C.3    16  GLY16       0.2014
      9  C         28.1830   36.1470   10.2110 C.2    16  GLY16       0.2639
     10  O         29.4140   36.3450   10.2090 O.2    16  GLY16      -0.2714
     11  N         27.3140   37.1420   10.1290 N.am   17  VAL17      -0.1963
     12  CA        27.8400   38.5030   10.0220 C.3    17  VAL17       0.1727
     13  C         28.2690   39.1460   11.3770 C.2    17  VAL17       0.2617
     14  O         29.0330   40.1310   11.4030 O.2    17  VAL17      -0.2715
     15  CB        26.9190   39.4330    9.2000 C.3    17  VAL17       0.0290
     16  CG1       26.6940   38.8800    7.7350 C.3    17  VAL17       0.0023
     17  CG2       25.6020   39.7420    9.9440 C.3    17  VAL17       0.0023
     18  N         27.7790   38.6000   12.4910 N.am   18  GLY18      -0.1940
     19  CA        28.1830   39.1160   13.8060 C.3    18  GLY18       0.2014
     20  C         27.0860   39.7090   14.6470 C.2    18  GLY18       0.2639
     21  O         27.3690   40.4060   15.6290 O.2    18  GLY18      -0.2714
     22  N         25.8310   39.4080   14.3080 N.am   19  LYS19      -0.1963
     23  CA        24.6930   40.0450   14.9890 C.3    19  LYS19       0.1728
     24  C         24.6290   39.6710   16.4630 C.2    19  LYS19       0.2617
     25  O         24.4850   40.5430   17.3090 O.2    19  LYS19      -0.2715
     26  CB        23.3660   39.6900   14.3190 C.3    19  LYS19       0.0311
     27  CG        23.2640   39.9960   12.8320 C.3    19  LYS19       0.0038
     28  CD        21.9120   39.4730   12.2990 C.3    19  LYS19       0.0206
     29  CE        21.7940   37.9590   12.4180 C.3    19  LYS19       0.1093
     30  NZ        22.6150   37.2230   11.3900 N.3    19  LYS19      -0.1314
     31  N         24.7180   38.3720   16.7600 N.am   20  THR20      -0.1937
     32  CA        24.7290   37.8800   18.1530 C.3    20  THR20       0.2028
     33  C         25.8900   38.4530   18.9630 C.2    20  THR20       0.2642
     34  O         25.7420   38.7990   20.1150 O.2    20  THR20      -0.2714
     35  CB        24.7670   36.3690   18.1830 C.3    20  THR20       0.1808
     36  OG1       23.6220   35.8650   17.4720 O.3    20  THR20      -0.2208
     37  CG2       24.7850   35.8090   19.6500 C.3    20  THR20       0.0379
     38  N         27.0360   38.5820   18.3430 N.am   21  ASN21      -0.1971
     39  CA        28.1930   39.1530   19.0200 C.3    21  ASN21       0.1688
     40  C         28.2020   40.6940   19.1780 C.2    21  ASN21       0.2292
     41  O         28.8430   41.2520   20.1130 O.2    21  ASN21      -0.2864
     42  CB        29.4570   38.6000   18.3750 C.3    21  ASN21       0.1181
     43  CG        29.8290   37.2390   18.9510 C.2    21  ASN21       0.2629
     44  OD1       30.1810   37.1600   20.1090 O.2    21  ASN21      -0.2716
     45  ND2       29.7210   36.1650   18.1500 N.am   21  ASN21      -0.0877
     46  N         32.3720   38.5030   23.9600 N.3    31  PHE31      -0.1227
     47  CA        32.5400   38.0040   22.5950 C.3    31  PHE31       0.1736
     48  C         32.8980   36.5130   22.6120 C.2    31  PHE31       0.2596
     49  O         33.9830   36.1280   23.1240 O.2    31  PHE31      -0.2718
     50  CB        33.5930   38.8090   21.8160 C.3    31  PHE31       0.0547
     51  CG        33.7960   38.3270   20.3760 C.ar   31  PHE31      -0.0202
     52  CD1       32.9230   38.7260   19.3530 C.ar   31  PHE31      -0.0042
     53  CD2       34.8530   37.4670   20.0450 C.ar   31  PHE31      -0.0042
     54  CE1       33.0950   38.2740   18.0230 C.ar   31  PHE31      -0.0003
     55  CE2       35.0290   37.0180   18.7210 C.ar   31  PHE31      -0.0003
     56  CZ        34.1420   37.4240   17.7120 C.ar   31  PHE31      -0.0000
     57  N         31.9680   35.6900   22.0900 N.am   32  SER32      -0.1938
     58  CA        32.1610   34.2590   21.8280 C.3    32  SER32       0.2055
     59  C         32.4280   33.9670   20.3320 C.2    32  SER32       0.2643
     60  O         32.4730   34.9030   19.5080 O.2    32  SER32      -0.2714
     61  CB        30.9490   33.4750   22.2700 C.3    32  SER32       0.2130
     62  OG        30.5750   33.7960   23.5840 O.3    32  SER32      -0.2179
     63  N         32.6250   32.6830   19.9930 N.am   33  HIS33      -0.1973
     64  CA        32.7820   32.2470   18.6010 C.3    33  HIS33       0.1656
     65  C         31.6190   31.3430   18.1990 C.2    33  HIS33       0.2291
     66  O         31.0840   31.4620   17.0860 O.2    33  HIS33      -0.2864
     67  CB        34.1530   31.5710   18.3350 C.3    33  HIS33       0.0771
     68  CG        35.3130   32.5310   18.3200 C.ar   33  HIS33       0.0820
     69  ND1       35.7240   33.1970   17.1780 N.ar   33  HIS33      -0.2267
     70  CD2       36.1460   32.9420   19.3110 C.ar   33  HIS33       0.1154
     71  CE1       36.7570   33.9710   17.4670 C.ar   33  HIS33       0.1986
     72  NE2       37.0320   33.8390   18.7560 N.ar   33  HIS33      -0.2212
     73  N         28.1830   30.8520   19.9400 N.3    35  SER35      -0.1217
     74  CA        27.4010   31.4150   21.0220 C.3    35  SER35       0.1889
     75  C         26.2910   30.4590   21.4890 C.2    35  SER35       0.2288
     76  O         25.5080   29.9430   20.6690 O.2    35  SER35      -0.2866
     77  CB        26.8060   32.7540   20.5750 C.3    35  SER35       0.2089
     78  OG        27.8160   33.6410   20.1040 O.3    35  SER35      -0.2183
     79  N         17.3530   39.5240   18.9240 N.3    61  ASP61      -0.1225
     80  CA        18.2250   38.7020   18.1030 C.3    61  ASP61       0.1805
     81  C         17.5880   37.3260   17.8740 C.2    61  ASP61       0.2598
     82  O         16.7930   36.8460   18.6750 O.2    61  ASP61      -0.2718
     83  CB        19.5770   38.6030   18.8110 C.3    61  ASP61       0.1424
     84  CG        20.6700   37.9160   17.9830 C.2    61  ASP61       0.3668
     85  OD1       20.8240   38.1400   16.7430 O.co2  61  ASP61      -0.2456
     86  OD2       21.4160   37.1670   18.6180 O.co2  61  ASP61      -0.2456
     87  N         17.8900   36.7130   16.7520 N.am   62  THR62      -0.1953
     88  CA        17.4420   35.3630   16.5120 C.3    62  THR62       0.1897
     89  C         18.3890   34.7520   15.4820 C.2    62  THR62       0.2313
     90  O         19.2460   35.4700   14.9570 O.2    62  THR62      -0.2863
     91  CB        15.9870   35.3140   16.0280 C.3    62  THR62       0.1794
     92  OG1       15.5600   33.9450   15.9960 O.3    62  THR62      -0.2208
     93  CG2       15.8260   35.9490   14.6320 C.3    62  THR62       0.0378
     94  N         30.3080   44.9740    9.7290 N.3   119  ASN119     -0.1225
     95  CA        31.0030   44.3650   10.8260 C.3   119  ASN119      0.1785
     96  C         32.2500   43.5800   10.4040 C.2   119  ASN119      0.2597
     97  O         32.4050   43.2410    9.2150 O.2   119  ASN119     -0.2718
     98  CB        30.0750   43.4530   11.6390 C.3   119  ASN119      0.1169
     99  CG        30.6910   43.0590   12.9470 C.2   119  ASN119      0.2627
    100  OD1       31.1970   43.9070   13.6750 O.2   119  ASN119     -0.2716
    101  ND2       30.6910   41.7730   13.2420 N.am  119  ASN119     -0.0877
    102  N         33.1090   43.2760   11.3950 N.am  120  LYS120     -0.1980
    103  CA        34.3640   42.5410   11.1900 C.3   120  LYS120      0.1596
    104  C         35.4480   43.4680   10.5930 C.2   120  LYS120      0.2287
    105  O         36.2490   43.0610    9.7320 O.2   120  LYS120     -0.2864
    106  CB        34.1560   41.2780   10.3290 C.3   120  LYS120      0.0298
    107  CG        33.0950   40.3250   10.9020 C.3   120  LYS120      0.0038
    108  CD        33.1960   38.9350   10.3390 C.3   120  LYS120      0.0206
    109  CE        32.0110   38.1220   10.7520 C.3   120  LYS120      0.1093
    110  NZ        32.0380   36.7280   10.2020 N.3   120  LYS120     -0.1314
    111  N         38.0510   44.5800   12.0250 N.3   122  ASP122     -0.1225
    112  CA        39.3760   44.0780   12.4320 C.3   122  ASP122      0.1805
    113  C         40.0100   43.2270   11.3020 C.2   122  ASP122      0.2597
    114  O         41.2120   42.9330   11.3310 O.2   122  ASP122     -0.2718
    115  CB        39.2520   43.2360   13.7090 C.3   122  ASP122      0.1424
    116  CG        38.1980   42.1330   13.5820 C.2   122  ASP122      0.3668
    117  OD1       36.9870   42.4890   13.5550 O.co2 122  ASP122     -0.2456
    118  OD2       38.5690   40.9220   13.4930 O.co2 122  ASP122     -0.2456
    119  N         39.1860   42.8230   10.3280 N.am  123  LEU123     -0.1979
    120  CA        39.6530   42.0360    9.2020 C.3   123  LEU123      0.1596
    121  C         39.5980   42.8650    7.9280 C.2   123  LEU123      0.2287
    122  O         39.4780   42.3160    6.8310 O.2   123  LEU123     -0.2864
    123  CB        38.8220   40.7380    9.0590 C.3   123  LEU123      0.0297
    124  CG        38.4730   39.8320   10.2680 C.3   123  LEU123      0.0022
    125  CD1       37.3750   38.8730    9.9020 C.3   123  LEU123      0.0001
    126  CD2       39.6880   39.0290   10.7570 C.3   123  LEU123      0.0001
    127  N         33.6890   46.4750   14.8440 N.3   149  SER149     -0.1202
    128  CA        34.2220   45.1350   15.0860 C.3   149  SER149      0.2020
    129  C         33.6980   44.6810   16.4120 C.2   149  SER149      0.2619
    130  O         34.0260   45.2840   17.4200 O.2   149  SER149     -0.2717
    131  CB        35.7570   45.1330   15.1010 C.3   149  SER149      0.2103
    132  OG        36.2290   43.9390   15.7080 O.3   149  SER149     -0.2182
    133  N         32.8530   43.6450   16.4250 N.am  150  ALA150     -0.1965
    134  CA        32.3940   43.0690   17.6920 C.3   150  ALA150      0.1728
    135  C         33.5630   42.4190   18.4610 C.2   150  ALA150      0.2616
    136  O         33.5370   42.3530   19.6950 O.2   150  ALA150     -0.2715
    137  CB        31.2520   42.0580   17.4720 C.3   150  ALA150      0.0334
    138  N         34.5630   41.9320   17.7090 N.am  151  LEU151     -0.1977
    139  CA        35.7690   41.3170   18.2440 C.3   151  LEU151      0.1596
    140  C         36.6740   42.3470   18.9270 C.2   151  LEU151      0.2287
    141  O         37.0680   42.1520   20.0590 O.2   151  LEU151     -0.2864
    142  CB        36.5050   40.5290   17.1460 C.3   151  LEU151      0.0297
    143  CG        37.8580   39.8260   17.4270 C.3   151  LEU151      0.0022
    144  CD1       38.0720   38.5710   16.5800 C.3   151  LEU151      0.0001
    145  CD2       39.0440   40.7930   17.2330 C.3   151  LEU151      0.0001
@<TRIPOS>BOND
     1   122   121    2
     2    16    15    1
     3   121   120    1
     4     4     3    2
     5     1     2    1
     6     6     5    1
     7   123   120    1
     8   123   124    1
     9     3     2    1
    10     3     7   am
    11    15    17    1
    12    15    12    1
    13   120   119    1
    14    97    96    2
    15     2     5    1
    16    94    95    1
    17   105   104    2
    18   125   124    1
    19    12    11    1
    20    12    13    1
    21    11     9   am
    22   110   109    1
    23    10     9    2
    24     9     8    1
    25   124   126    1
    26     8     7    1
    27   119   113   am
    28   106   107    1
    29   106   103    1
    30   108   109    1
    31   108   107    1
    32    96    95    1
    33    96   102   am
    34   104   103    1
    35    95    98    1
    36   103   102    1
    37   113   114    2
    38   113   112    1
    39    13    14    2
    40    13    18   am
    41    30    29    1
    42    98    99    1
    43   111   112    1
    44    28    29    1
    45    28    27    1
    46   112   115    1
    47    18    19    1
    48    27    26    1
    49    99   101   am
    50    99   100    2
    51   118   116   ar
    52   117   116   ar
    53   116   115    1
    54    19    20    1
    55    22    20   am
    56    22    23    1
    57    26    23    1
    58    93    91    1
    59    20    21    2
    60   127   128    1
    61    90    89    2
    62    23    24    1
    63   128   131    1
    64   128   129    1
    65   131   132    1
    66    89    88    1
    67    92    91    1
    68    91    88    1
    69   129   133   am
    70   129   130    2
    71   133   134    1
    72    24    31   am
    73    24    25    2
    74    88    87    1
    75   144   143    1
    76    85    84   ar
    77    87    81   am
    78    31    32    1
    79    66    65    2
    80   142   143    1
    81   142   139    1
    82    69    71   ar
    83    69    68   ar
    84   145   143    1
    85    71    72   ar
    86    36    35    1
    87   137   134    1
    88   134   135    1
    89   138   139    1
    90   138   135   am
    91    56    54   ar
    92    56    55   ar
    93    81    80    1
    94    81    82    2
    95    84    86   ar
    96    84    83    1
    97    54    52   ar
    98    80    83    1
    99    80    79    1
   100    45    43   am
   101    32    35    1
   102    32    33    1
   103    35    37    1
   104    65    64    1
   105   139   140    1
   106    68    67    1
   107    68    70   ar
   108    67    64    1
   109    38    33   am
   110    38    39    1
   111    42    43    1
   112    42    39    1
   113   135   136    2
   114    64    63    1
   115    55    53   ar
   116    72    70   ar
   117   140   141    2
   118    43    44    2
   119    33    34    2
   120    39    40    1
   121    40    41    2
   122    52    51   ar
   123    60    59    2
   124    73    74    1
   125    63    59   am
   126    53    51   ar
   127    78    77    1
   128    59    58    1
   129    51    50    1
   130    77    74    1
   131    76    75    2
   132    74    75    1
   133    50    47    1
   134    58    57    1
   135    58    61    1
   136    57    48   am
   137    61    62    1
   138    47    48    1
   139    47    46    1
   140    48    49    2
