@<TRIPOS>MOLECULE
tmp/2oj9A00.pdb
 161 151 0 0 0
SMALL
GASTEIGER

@<TRIPOS>ATOM
      1  N          0.7460  -10.1010   24.9400 N.3    22  LEU22      -0.1231
      2  CA         1.8220  -10.2710   23.9750 C.3    22  LEU22       0.1693
      3  C          3.0790  -10.3480   24.8270 C.2    22  LEU22       0.2593
      4  O          3.8630  -11.2890   24.7300 O.2    22  LEU22      -0.2718
      5  CB         1.8990   -9.0820   23.0060 C.3    22  LEU22       0.0284
      6  CG         0.9830   -9.1700   21.7840 C.3    22  LEU22       0.0019
      7  CD1        0.9780   -7.8840   20.9710 C.3    22  LEU22       0.0001
      8  CD2        1.3080  -10.3760   20.9110 C.3    22  LEU22       0.0001
      9  N          3.2370   -9.3760   25.7160 N.am   23  GLY23      -0.1942
     10  CA         4.3860   -9.3580   26.5930 C.3    23  GLY23       0.2014
     11  C          4.5480   -8.0240   27.2760 C.2    23  GLY23       0.2639
     12  O          3.7970   -7.0830   27.0200 O.2    23  GLY23      -0.2714
     13  N          5.5200   -7.9530   28.1750 N.am   24  GLN24      -0.1963
     14  CA         5.7670   -6.7350   28.9330 C.3    24  GLN24       0.1733
     15  C          6.3350   -5.6250   28.0620 C.2    24  GLN24       0.2617
     16  O          7.2510   -5.8480   27.2820 O.2    24  GLN24      -0.2715
     17  CB         6.7290   -7.0170   30.0940 C.3    24  GLN24       0.0408
     18  CG         6.8900   -5.8590   31.0550 C.3    24  GLN24       0.0908
     19  CD         5.5690   -5.4090   31.6390 C.2    24  GLN24       0.2608
     20  OE1        5.3100   -4.2120   31.7700 O.2    24  GLN24      -0.2717
     21  NE2        4.7200   -6.3690   31.9890 N.am   24  GLN24      -0.0878
     22  N          5.7830   -4.4290   28.2200 N.am   25  GLY25      -0.1940
     23  CA         6.2390   -3.2340   27.5350 C.3    25  GLY25       0.2014
     24  C          6.8560   -2.3370   28.5900 C.2    25  GLY25       0.2639
     25  O          6.7590   -2.6290   29.7860 O.2    25  GLY25      -0.2714
     26  N          7.4960   -1.2550   28.1570 N.am   26  SER26      -0.1949
     27  CA         8.1480   -0.3180   29.0640 C.3    26  SER26       0.1924
     28  C          7.2230    0.2810   30.1180 C.2    26  SER26       0.2314
     29  O          7.6200    0.4500   31.2730 O.2    26  SER26      -0.2863
     30  CB         8.7980    0.8150   28.2700 C.3    26  SER26       0.2116
     31  OG         7.8480    1.8360   28.0020 O.3    26  SER26      -0.2180
     32  N          1.5870   -5.4360   27.1840 N.3    30  VAL30      -0.1245
     33  CA         1.0810   -5.2220   25.8330 C.3    30  VAL30       0.1561
     34  C          0.1930   -6.4090   25.4900 C.2    30  VAL30       0.2260
     35  O          0.5900   -7.5550   25.6840 O.2    30  VAL30      -0.2867
     36  CB         2.2430   -5.0800   24.8190 C.3    30  VAL30       0.0252
     37  CG1        1.7130   -4.9170   23.4000 C.3    30  VAL30       0.0019
     38  CG2        3.1690   -3.9110   25.2120 C.3    30  VAL30       0.0019
     39  N         -2.3130   -4.2910   18.4030 N.3    48  ALA48      -0.1245
     40  CA        -1.5640   -4.4410   19.6340 C.3    48  ALA48       0.1562
     41  C         -2.1220   -3.3540   20.5540 C.2    48  ALA48       0.2260
     42  O         -2.3780   -2.2270   20.1160 O.2    48  ALA48      -0.2867
     43  CB        -0.0550   -4.2130   19.4010 C.3    48  ALA48       0.0290
     44  N         -1.2180   -1.3590   23.9600 N.3    50  LYS50      -0.1245
     45  CA        -0.2260   -1.0540   24.9740 C.3    50  LYS50       0.1561
     46  C         -0.9440   -0.4160   26.1540 C.2    50  LYS50       0.2260
     47  O         -1.8050    0.4520   25.9790 O.2    50  LYS50      -0.2867
     48  CB         0.8370   -0.0920   24.4340 C.3    50  LYS50       0.0271
     49  CG         1.3190   -0.3830   23.0290 C.3    50  LYS50       0.0035
     50  CD         2.6840    0.2350   22.7740 C.3    50  LYS50       0.0206
     51  CE         2.6220    1.7510   22.7910 C.3    50  LYS50       0.1093
     52  NZ         3.9170    2.3670   22.3860 N.3    50  LYS50      -0.1314
     53  N          6.1120    1.2070   12.1500 N.3    80  VAL80      -0.1245
     54  CA         4.9490    0.6820   12.8550 C.3    80  VAL80       0.1561
     55  C          3.9320    1.8050   13.0200 C.2    80  VAL80       0.2260
     56  O          4.2620    2.9100   13.4690 O.2    80  VAL80      -0.2867
     57  CB         5.3060    0.0090   14.2010 C.3    80  VAL80       0.0252
     58  CG1        4.0340   -0.5300   14.8780 C.3    80  VAL80       0.0019
     59  CG2        6.3110   -1.1240   13.9930 C.3    80  VAL80       0.0019
     60  N         -1.9440    0.0960   18.4310 N.3    96  MET96      -0.1230
     61  CA        -0.9440    0.0750   17.3690 C.3    96  MET96       0.1702
     62  C         -1.1420   -1.0700   16.3900 C.2    96  MET96       0.2592
     63  O         -1.7910   -2.0850   16.6960 O.2    96  MET96      -0.2718
     64  CB         0.4580   -0.1090   17.9660 C.3    96  MET96       0.0401
     65  CG         0.7840    0.7390   19.1710 C.3    96  MET96       0.0596
     66  SD         1.4740    2.3390   18.7400 S.3    96  MET96      -0.1393
     67  CE         2.7340    1.8890   17.5450 C.3    96  MET96       0.0692
     68  N         -0.4790   -0.9400   15.2470 N.am   97  GLU97      -0.1966
     69  CA        -0.4400   -1.9930   14.2500 C.3    97  GLU97       0.1733
     70  C          0.2090   -3.1820   14.9470 C.2    97  GLU97       0.2616
     71  O          1.1890   -3.0310   15.6760 O.2    97  GLU97      -0.2715
     72  CB         0.4250   -1.5370   13.0610 C.3    97  GLU97       0.0429
     73  CG         1.0280   -2.6610   12.2260 C.3    97  GLU97       0.1163
     74  CD         1.8070   -2.1510   11.0230 C.2    97  GLU97       0.3649
     75  OE1        2.2440   -0.9860   11.0370 O.co2  97  GLU97      -0.2457
     76  OE2        1.9780   -2.9070   10.0480 O.co2  97  GLU97      -0.2457
     77  N         -0.3460   -4.3640   14.7370 N.am   98  LEU98      -0.1963
     78  CA         0.1460   -5.5730   15.3860 C.3    98  LEU98       0.1728
     79  C          1.3750   -6.1720   14.6970 C.2    98  LEU98       0.2616
     80  O          1.3680   -6.4450   13.4920 O.2    98  LEU98      -0.2715
     81  CB        -0.9780   -6.6200   15.4650 C.3    98  LEU98       0.0311
     82  CG        -0.6330   -8.0030   16.0430 C.3    98  LEU98       0.0022
     83  CD1       -0.2500   -7.9210   17.5270 C.3    98  LEU98       0.0001
     84  CD2       -1.8130   -8.9480   15.8590 C.3    98  LEU98       0.0001
     85  N          2.4240   -6.3970   15.4790 N.am   99  MET99      -0.1963
     86  CA         3.6590   -6.9960   14.9610 C.3    99  MET99       0.1736
     87  C          3.9040   -8.2390   15.8300 C.2    99  MET99       0.2617
     88  O          4.4770   -8.1500   16.9100 O.2    99  MET99      -0.2715
     89  CB         4.8180   -5.9920   15.0820 C.3    99  MET99       0.0427
     90  CG         4.5510   -4.6430   14.3730 C.3    99  MET99       0.0599
     91  SD         4.6300   -4.8390   12.5680 S.3    99  MET99      -0.1393
     92  CE         6.4460   -4.9420   12.2890 C.3    99  MET99       0.0692
     93  N          3.3620   -9.3690   15.3930 N.am  100  THR100     -0.1937
     94  CA         3.3820  -10.6240   16.1620 C.3   100  THR100      0.2028
     95  C          4.7290  -11.1650   16.6090 C.2   100  THR100      0.2642
     96  O          4.8080  -11.9120   17.5890 O.2   100  THR100     -0.2714
     97  CB         2.6180  -11.7360   15.4340 C.3   100  THR100      0.1808
     98  OG1        3.2860  -12.0360   14.2030 O.3   100  THR100     -0.2208
     99  CG2        1.1710  -11.3260   15.1630 C.3   100  THR100      0.0379
    100  N          5.7780  -10.8630   15.8550 N.am  101  ARG101     -0.1963
    101  CA         7.0860  -11.4190   16.1760 C.3   101  ARG101      0.1729
    102  C          7.9780  -10.6290   17.1360 C.2   101  ARG101      0.2617
    103  O          9.1370  -10.9830   17.3450 O.2   101  ARG101     -0.2715
    104  CB         7.8150  -11.8890   14.9120 C.3   101  ARG101      0.0348
    105  CG         7.1020  -13.0560   14.2390 C.3   101  ARG101      0.0492
    106  CD         7.6570  -13.3850   12.8510 C.3   101  ARG101      0.2205
    107  NE         6.7060  -14.1780   12.0800 N.pl3 101  ARG101     -0.0865
    108  CZ         6.4230  -15.4560   12.3240 C.cat 101  ARG101      0.5346
    109  NH1        7.0250  -16.0920   13.3160 N.pl3 101  ARG101      0.1354
    110  NH2        5.5290  -16.1000   11.5880 N.pl3 101  ARG101      0.1354
    111  N          7.4210   -9.5870   17.7490 N.am  102  GLY102     -0.1940
    112  CA         8.1350   -8.7800   18.7190 C.3   102  GLY102      0.2014
    113  C          9.2600   -7.9410   18.1440 C.2   102  GLY102      0.2638
    114  O          9.3190   -7.6780   16.9380 O.2   102  GLY102     -0.2714
    115  N         10.1690   -7.5240   19.0140 N.am  103  ASP103     -0.1971
    116  CA        11.2900   -6.6960   18.5890 C.3   103  ASP103      0.1709
    117  C         12.3440   -7.4840   17.8160 C.2   103  ASP103      0.2293
    118  O         12.4710   -8.6970   17.9810 O.2   103  ASP103     -0.2864
    119  CB        11.8700   -5.8890   19.7680 C.3   103  ASP103      0.1436
    120  CG        12.7140   -6.7370   20.7140 C.2   103  ASP103      0.3671
    121  OD1       13.9310   -6.8850   20.4700 O.co2 103  ASP103     -0.2456
    122  OD2       12.1750   -7.1860   21.7460 O.co2 103  ASP103     -0.2456
    123  N         10.6170   -3.6720   14.7840 N.3   151  MET151     -0.1245
    124  CA         9.6770   -4.7500   15.0680 C.3   151  MET151      0.1570
    125  C          9.5410   -5.6860   13.8790 C.2   151  MET151      0.2261
    126  O          9.8890   -5.3180   12.7510 O.2   151  MET151     -0.2867
    127  CB         8.3170   -4.1790   15.4740 C.3   151  MET151      0.0387
    128  CG         8.4010   -3.3280   16.7480 C.3   151  MET151      0.0595
    129  SD         6.8830   -3.3880   17.6850 S.3   151  MET151     -0.1393
    130  CE         6.9800   -5.1040   18.3200 C.3   151  MET151      0.0692
    131  N          9.4510    2.7260   18.0050 N.3   162  ASP162     -0.1239
    132  CA         9.7000    3.9650   18.7530 C.3   162  ASP162      0.1674
    133  C         11.1220    4.2610   19.2490 C.2   162  ASP162      0.2266
    134  O         11.8830    3.3590   19.6040 O.2   162  ASP162     -0.2867
    135  CB         8.7250    4.0910   19.9280 C.3   162  ASP162      0.1410
    136  CG         7.3270    3.5810   19.5970 C.2   162  ASP162      0.3668
    137  OD1        7.2110    2.5050   18.9710 O.co2 162  ASP162     -0.2456
    138  OD2        6.3420    4.2460   19.9930 O.co2 162  ASP162     -0.2456
    139  N         11.4240    3.1640   23.8620 N.3   165  MET165     -0.1230
    140  CA        10.2960    2.2300   23.7750 C.3   165  MET165      0.1702
    141  C         10.7050    0.8180   24.1890 C.2   165  MET165      0.2593
    142  O          9.9190    0.0760   24.7720 O.2   165  MET165     -0.2718
    143  CB         9.6940    2.2400   22.3620 C.3   165  MET165      0.0401
    144  CG         9.1360    0.9020   21.8750 C.3   165  MET165      0.0596
    145  SD        10.1370    0.1920   20.5450 S.3   165  MET165     -0.1393
    146  CE         8.9020   -0.4810   19.4330 C.3   165  MET165      0.0692
    147  N         11.9490    0.4650   23.8940 N.am  166  THR166     -0.1953
    148  CA        12.5110   -0.8230   24.2720 C.3   166  THR166      0.1897
    149  C         13.8280   -0.4830   24.9860 C.2   166  THR166      0.2313
    150  O         14.9160   -0.8810   24.5760 O.2   166  THR166     -0.2863
    151  CB        12.6770   -1.7360   23.0340 C.3   166  THR166      0.1794
    152  OG1       11.3940   -2.2380   22.6370 O.3   166  THR166     -0.2208
    153  CG2       13.5770   -2.9010   23.3180 C.3   166  THR166      0.0378
    154  N         13.5690   -2.6620   28.7250 N.3   169  ILE169     -0.1245
    155  CA        13.6870   -4.0980   28.5020 C.3   169  ILE169      0.1561
    156  C         15.1390   -4.5430   28.2900 C.2   169  ILE169      0.2260
    157  O         15.5320   -5.6200   28.7330 O.2   169  ILE169     -0.2867
    158  CB        12.7500   -4.5930   27.3830 C.3   169  ILE169      0.0252
    159  CG1       12.7640   -6.1210   27.3140 C.3   169  ILE169      0.0019
    160  CG2       13.1610   -4.0130   26.0520 C.3   169  ILE169      0.0019
    161  CD1       12.2350   -6.7900   28.5670 C.3   169  ILE169      0.0001
@<TRIPOS>BOND
     1    76    74   ar
     2    74    75   ar
     3    74    73    1
     4   110   108    1
     5   107   108    2
     6   107   106    1
     7    53    54    1
     8    73    72    1
     9    92    91    1
    10   108   109    1
    11    91    90    1
    12   126   125    2
    13   106   105    1
    14    54    55    1
    15    54    57    1
    16    55    56    2
    17    72    69    1
    18    80    79    2
    19   125   124    1
    20    59    57    1
    21    57    58    1
    22    98    97    1
    23   105   104    1
    24    69    70    1
    25    69    68    1
    26    90    89    1
    27    79    78    1
    28    79    85   am
    29    77    70   am
    30    77    78    1
    31   123   124    1
    32   104   101    1
    33    70    71    2
    34    86    89    1
    35    86    85    1
    36    86    87    1
    37   124   127    1
    38    99    97    1
    39    68    62   am
    40    78    81    1
    41    93    87   am
    42    93    94    1
    43    97    94    1
    44    81    82    1
    45   127   128    1
    46    87    88    2
    47   100   101    1
    48   100    95   am
    49    84    82    1
    50    82    83    1
    51    94    95    1
    52   101   102    1
    53    62    63    2
    54    62    61    1
    55    95    96    2
    56   128   129    1
    57   114   113    2
    58   102   103    2
    59   102   111   am
    60    61    64    1
    61    61    60    1
    62    67    66    1
    63   129   130    1
    64   111   112    1
    65   117   118    2
    66   117   116    1
    67    64    65    1
    68   131   132    1
    69   113   112    1
    70   113   115   am
    71    39    40    1
    72   116   115    1
    73   116   119    1
    74    66    65    1
    75   132   133    1
    76   132   135    1
    77   137   136   ar
    78   133   134    2
    79    43    40    1
    80   146   145    1
    81   136   135    1
    82   136   138   ar
    83    40    41    1
    84   119   120    1
    85    42    41    2
    86   121   120   ar
    87   145   144    1
    88   120   122   ar
    89     8     6    1
    90     7     6    1
    91     6     5    1
    92   144   143    1
    93   143   140    1
    94    52    51    1
    95   152   151    1
    96    50    51    1
    97    50    49    1
    98     5     2    1
    99    49    48    1
   100   151   153    1
   101   151   148    1
   102    37    36    1
   103   140   139    1
   104   140   141    1
   105   147   141   am
   106   147   148    1
   107    44    45    1
   108     2     3    1
   109     2     1    1
   110   141   142    2
   111   148   149    1
   112    48    45    1
   113   150   149    2
   114     4     3    2
   115    36    38    1
   116    36    33    1
   117     3     9   am
   118    45    46    1
   119    34    35    2
   120    34    33    1
   121     9    10    1
   122    33    32    1
   123    47    46    2
   124   160   158    1
   125    10    11    1
   126    12    11    2
   127    11    13   am
   128    16    15    2
   129   159   158    1
   130   159   161    1
   131   158   155    1
   132    23    22    1
   133    23    24    1
   134    31    30    1
   135    15    22   am
   136    15    14    1
   137    26    24   am
   138    26    27    1
   139    13    14    1
   140    30    27    1
   141   156   155    1
   142   156   157    2
   143   155   154    1
   144    24    25    2
   145    14    17    1
   146    27    28    1
   147    17    18    1
   148    28    29    2
   149    18    19    1
   150    19    20    2
   151    19    21   am
