@<TRIPOS>MOLECULE
tmp/2ojuB00.pdb
 193 185 0 0 0
SMALL
GASTEIGER

@<TRIPOS>ATOM
      1  N         54.8700   14.0170   98.6480 N.3    49  HIS49      -0.1226
      2  CA        55.6280   14.8130   97.6860 C.3    49  HIS49       0.1752
      3  C         56.3790   16.0540   98.1660 C.2    49  HIS49       0.2595
      4  O         57.0600   16.7010   97.3720 O.2    49  HIS49      -0.2718
      5  CB        54.7160   15.2330   96.5420 C.3    49  HIS49       0.0759
      6  CG        53.6190   16.1560   96.9590 C.ar   49  HIS49       0.0818
      7  ND1       52.5630   15.7490   97.7450 N.ar   49  HIS49      -0.2268
      8  CD2       53.4040   17.4650   96.6880 C.ar   49  HIS49       0.1154
      9  CE1       51.7420   16.7670   97.9360 C.ar   49  HIS49       0.1986
     10  NE2       52.2300   17.8200   97.3050 N.ar   49  HIS49      -0.2212
     11  N         56.2660   16.4040   99.4390 N.am   50  ARG50      -0.1980
     12  CA        56.9630   17.5840   99.9340 C.3    50  ARG50       0.1597
     13  C         57.1800   17.4530  101.4360 C.2    50  ARG50       0.2287
     14  O         56.2400   17.5810  102.2170 O.2    50  ARG50      -0.2864
     15  CB        56.1450   18.8370   99.5930 C.3    50  ARG50       0.0334
     16  CG        56.8160   20.1460   99.9580 C.3    50  ARG50       0.0492
     17  CD        56.2830   21.3080   99.1350 C.3    50  ARG50       0.2205
     18  NE        56.8550   22.5700   99.5960 N.pl3  50  ARG50      -0.0865
     19  CZ        56.3040   23.3370  100.5320 C.cat  50  ARG50       0.5346
     20  NH1       55.1600   22.9740  101.0970 N.pl3  50  ARG50       0.1354
     21  NH2       56.9030   24.4540  100.9210 N.pl3  50  ARG50       0.1354
     22  N         59.2980   18.9800  104.5470 N.3    52  ILE52      -0.1245
     23  CA        60.1560   20.0130  105.1130 C.3    52  ILE52       0.1561
     24  C         60.4110   19.8610  106.6010 C.2    52  ILE52       0.2260
     25  O         59.5680   20.2220  107.4190 O.2    52  ILE52      -0.2867
     26  CB        59.5550   21.4040  104.8920 C.3    52  ILE52       0.0252
     27  CG1       59.3230   21.6390  103.3990 C.3    52  ILE52       0.0019
     28  CG2       60.4740   22.4530  105.4780 C.3    52  ILE52       0.0019
     29  CD1       58.6060   22.9320  103.0770 C.3    52  ILE52       0.0001
     30  N         59.0250   21.8020  109.6120 N.3    55  PHE55      -0.1227
     31  CA        57.8090   22.4700  109.1430 C.3    55  PHE55       0.1736
     32  C         56.6100   21.5170  109.0240 C.2    55  PHE55       0.2595
     33  O         55.7990   21.4080  109.9500 O.2    55  PHE55      -0.2718
     34  CB        58.0850   23.1700  107.8010 C.3    55  PHE55       0.0547
     35  CG        56.8890   23.8840  107.2180 C.ar   55  PHE55      -0.0202
     36  CD1       55.9220   24.4570  108.0460 C.ar   55  PHE55      -0.0042
     37  CD2       56.7330   23.9880  105.8340 C.ar   55  PHE55      -0.0042
     38  CE1       54.8150   25.1180  107.5040 C.ar   55  PHE55      -0.0003
     39  CE2       55.6240   24.6510  105.2790 C.ar   55  PHE55      -0.0003
     40  CZ        54.6650   25.2140  106.1170 C.ar   55  PHE55      -0.0000
     41  N         56.4940   20.8280  107.8910 N.am   56  MET56      -0.1979
     42  CA        55.3860   19.9010  107.6920 C.3    56  MET56       0.1605
     43  C         55.6400   18.9420  106.5380 C.2    56  MET56       0.2287
     44  O         56.4920   19.1880  105.6920 O.2    56  MET56      -0.2864
     45  CB        54.0910   20.6830  107.4360 C.3    56  MET56       0.0413
     46  CG        54.0930   21.5400  106.1770 C.3    56  MET56       0.0598
     47  SD        53.7700   20.6240  104.6420 S.3    56  MET56      -0.1393
     48  CE        55.3300   20.7500  103.7930 C.3    56  MET56       0.0692
     49  N         53.6890   17.0350  103.4280 N.3    58  GLN58      -0.1245
     50  CA        52.4620   17.1460  102.6360 C.3    58  GLN58       0.1566
     51  C         52.2480   15.9550  101.7000 C.2    58  GLN58       0.2260
     52  O         53.2100   15.3990  101.1500 O.2    58  GLN58      -0.2867
     53  CB        52.5150   18.4470  101.8290 C.3    58  GLN58       0.0367
     54  CG        51.4070   18.6630  100.8060 C.3    58  GLN58       0.0905
     55  CD        51.5690   19.9960  100.0890 C.2    58  GLN58       0.2608
     56  OE1       52.6570   20.5760  100.0930 O.2    58  GLN58      -0.2717
     57  NE2       50.4980   20.4830   99.4660 N.am   58  GLN58      -0.0878
     58  N         51.9830   17.8050   92.5220 N.3    66  GLY66      -0.1210
     59  CA        51.8780   18.7800   93.5850 C.3    66  GLY66       0.1956
     60  C         50.6710   19.6630   93.3700 C.2    66  GLY66       0.2611
     61  O         50.2910   20.4310   94.2530 O.2    66  GLY66      -0.2717
     62  N         50.0660   19.5560   92.1910 N.am   67  ARG67      -0.1979
     63  CA        48.8950   20.3560   91.8710 C.3    67  ARG67       0.1597
     64  C         47.6920   19.5040   91.5160 C.2    67  ARG67       0.2287
     65  O         46.7540   19.9830   90.8760 O.2    67  ARG67      -0.2864
     66  CB        49.1980   21.3040   90.7120 C.3    67  ARG67       0.0334
     67  CG        49.7360   20.6370   89.4680 C.3    67  ARG67       0.0492
     68  CD        49.9590   21.6690   88.3710 C.3    67  ARG67       0.2205
     69  NE        50.5410   21.0770   87.1700 N.pl3  67  ARG67      -0.0865
     70  CZ        51.7390   20.5020   87.1220 C.cat  67  ARG67       0.5346
     71  NH1       52.1820   19.9890   85.9810 N.pl3  67  ARG67       0.1354
     72  NH2       52.4980   20.4430   88.2090 N.pl3  67  ARG67       0.1354
     73  N         36.1380   21.7620   94.4520 N.3    76  LYS76      -0.1245
     74  CA        36.7340   22.3040   95.6740 C.3    76  LYS76       0.1561
     75  C         35.6350   22.7800   96.6190 C.2    76  LYS76       0.2260
     76  O         34.6050   23.2850   96.1720 O.2    76  LYS76      -0.2867
     77  CB        37.6570   23.4770   95.3380 C.3    76  LYS76       0.0271
     78  CG        38.6540   23.2270   94.2110 C.3    76  LYS76       0.0035
     79  CD        39.7350   22.2230   94.5850 C.3    76  LYS76       0.0206
     80  CE        40.7940   22.1560   93.4870 C.3    76  LYS76       0.1093
     81  NZ        41.7790   21.0760   93.7290 N.3    76  LYS76      -0.1314
     82  N         45.6780   21.4300  102.6770 N.3    96  ALA96      -0.1231
     83  CA        46.4710   22.3600  101.9010 C.3    96  ALA96       0.1694
     84  C         45.4680   23.1030  101.0240 C.2    96  ALA96       0.2592
     85  O         44.2940   22.7410  100.9910 O.2    96  ALA96      -0.2718
     86  CB        47.4410   21.5910  101.0410 C.3    96  ALA96       0.0304
     87  N         45.9100   24.1390  100.3190 N.am   97  ASN97      -0.1960
     88  CA        45.0050   24.8780   99.4320 C.3    97  ASN97       0.1819
     89  C         45.7220   25.9750   98.6400 C.2    97  ASN97       0.2621
     90  O         46.8990   26.2430   98.8630 O.2    97  ASN97      -0.2715
     91  CB        43.8540   25.4960  100.2310 C.3    97  ASN97       0.1195
     92  CG        44.3020   26.6700  101.0900 C.2    97  ASN97       0.2630
     93  OD1       44.8720   27.6330  100.5860 O.2    97  ASN97      -0.2716
     94  ND2       44.0390   26.5940  102.3920 N.am   97  ASN97      -0.0877
     95  N         45.0070   26.5880   97.7020 N.am   98  ASN98      -0.1958
     96  CA        45.5500   27.6770   96.8940 C.3    98  ASN98       0.1819
     97  C         44.6980   28.9190   97.1490 C.2    98  ASN98       0.2621
     98  O         44.3320   29.6450   96.2220 O.2    98  ASN98      -0.2715
     99  CB        45.5000   27.3340   95.4030 C.3    98  ASN98       0.1195
    100  CG        46.4010   26.1800   95.0410 C.2    98  ASN98       0.2630
    101  OD1       47.5150   26.0580   95.5550 O.2    98  ASN98      -0.2716
    102  ND2       45.9320   25.3280   94.1380 N.am   98  ASN98      -0.0877
    103  N         44.3750   29.1490   98.4150 N.am   99  GLY99      -0.1954
    104  CA        43.5480   30.2860   98.7680 C.3    99  GLY99       0.1869
    105  C         42.2270   29.8350   99.3620 C.2    99  GLY99       0.2309
    106  O         41.9240   28.6410   99.3690 O.2    99  GLY99      -0.2863
    107  N         39.4040   26.3370   98.5150 N.3   102  THR102     -0.1218
    108  CA        39.9860   25.6020   97.4070 C.3   102  THR102      0.1862
    109  C         40.4310   24.2340   97.9060 C.2   102  THR102      0.2287
    110  O         41.3860   23.6470   97.3930 O.2   102  THR102     -0.2866
    111  CB        41.1820   26.3780   96.7990 C.3   102  THR102      0.1770
    112  OG1       42.2000   26.5780   97.8000 O.3   102  THR102     -0.2211
    113  CG2       40.7010   27.7300   96.2710 C.3   102  THR102      0.0375
    114  N         44.5090   17.2210   98.9340 N.3   106  GLN106     -0.1245
    115  CA        45.8450   17.3490   99.5200 C.3   106  GLN106      0.1566
    116  C         45.7430   17.8230  100.9560 C.2   106  GLN106      0.2260
    117  O         44.8980   18.6510  101.2860 O.2   106  GLN106     -0.2867
    118  CB        46.7090   18.3240   98.7200 C.3   106  GLN106      0.0367
    119  CG        46.9770   17.8750   97.3020 C.3   106  GLN106      0.0905
    120  CD        48.1350   18.6170   96.6650 C.2   106  GLN106      0.2608
    121  OE1       49.2260   18.6880   97.2320 O.2   106  GLN106     -0.2717
    122  NE2       47.9070   19.1600   95.4740 N.am  106  GLN106     -0.0878
    123  N         48.2470   18.0880  104.9250 N.3   108  PHE108     -0.1241
    124  CA        49.5670   17.9900  105.5220 C.3   108  PHE108      0.1605
    125  C         49.5080   17.7190  107.0140 C.2   108  PHE108      0.2264
    126  O         48.4640   17.8700  107.6410 O.2   108  PHE108     -0.2867
    127  CB        50.3910   19.2630  105.2570 C.3   108  PHE108      0.0534
    128  CG        49.7970   20.5260  105.8390 C.ar  108  PHE108     -0.0203
    129  CD1       48.7640   21.1910  105.1900 C.ar  108  PHE108     -0.0042
    130  CD2       50.2960   21.0600  107.0280 C.ar  108  PHE108     -0.0042
    131  CE1       48.2310   22.3790  105.7100 C.ar  108  PHE108     -0.0003
    132  CE2       49.7730   22.2440  107.5600 C.ar  108  PHE108     -0.0003
    133  CZ        48.7390   22.9050  106.8980 C.ar  108  PHE108     -0.0000
    134  N         52.9800   25.8450  114.3250 N.3   114  GLN114     -0.1245
    135  CA        53.0220   26.6640  113.1160 C.3   114  GLN114      0.1566
    136  C         51.8870   27.6790  113.1160 C.2   114  GLN114      0.2260
    137  O         50.9800   27.6030  112.2820 O.2   114  GLN114     -0.2867
    138  CB        52.8900   25.7860  111.8680 C.3   114  GLN114      0.0367
    139  CG        53.9790   24.7400  111.6860 C.3   114  GLN114      0.0905
    140  CD        55.3470   25.3580  111.5590 C.2   114  GLN114      0.2608
    141  OE1       55.4940   26.4380  110.9930 O.2   114  GLN114     -0.2717
    142  NE2       56.3600   24.6740  112.0730 N.am  114  GLN114     -0.0878
    143  N         51.3780   30.6920  111.9950 N.3   116  HIS116     -0.1226
    144  CA        51.0240   31.4900  110.8200 C.3   116  HIS116      0.1752
    145  C         50.0290   30.8290  109.8690 C.2   116  HIS116      0.2595
    146  O         49.6470   31.4260  108.8630 O.2   116  HIS116     -0.2718
    147  CB        52.2720   31.8730  110.0350 C.3   116  HIS116      0.0759
    148  CG        52.9990   30.7070  109.4540 C.ar  116  HIS116      0.0818
    149  ND1       53.6780   29.7940  110.2310 N.ar  116  HIS116     -0.2268
    150  CD2       53.1730   30.3150  108.1700 C.ar  116  HIS116      0.1154
    151  CE1       54.2440   28.8900  109.4500 C.ar  116  HIS116      0.1986
    152  NE2       53.9530   29.1850  108.1940 N.ar  116  HIS116     -0.2212
    153  N         49.6050   29.6070  110.1830 N.am  117  LEU117     -0.1980
    154  CA        48.6470   28.8990  109.3360 C.3   117  LEU117      0.1596
    155  C         47.2190   29.0340  109.8760 C.2   117  LEU117      0.2287
    156  O         46.2420   28.8630  109.1320 O.2   117  LEU117     -0.2864
    157  CB        49.0290   27.4160  109.2440 C.3   117  LEU117      0.0297
    158  CG        50.4560   27.1160  108.7720 C.3   117  LEU117      0.0022
    159  CD1       50.7480   25.6420  108.8860 C.3   117  LEU117      0.0001
    160  CD2       50.6240   27.5870  107.3470 C.3   117  LEU117      0.0001
    161  N         43.9070   30.1970  108.1880 N.3   120  LYS120     -0.1231
    162  CA        44.1770   30.2470  106.7550 C.3   120  LYS120      0.1693
    163  C         44.0780   28.8610  106.1040 C.2   120  LYS120      0.2592
    164  O         43.9030   28.7510  104.8930 O.2   120  LYS120     -0.2718
    165  CB        45.5500   30.8730  106.4910 C.3   120  LYS120      0.0285
    166  CG        45.6780   32.3030  107.0150 C.3   120  LYS120      0.0035
    167  CD        46.9140   32.9970  106.4760 C.3   120  LYS120      0.0206
    168  CE        47.4310   34.0420  107.4510 C.3   120  LYS120      0.1093
    169  NZ        47.9660   33.4020  108.6940 N.3   120  LYS120     -0.1314
    170  N         44.1900   27.8120  106.9170 N.am  121  TYR121     -0.1976
    171  CA        44.0870   26.4370  106.4370 C.3   121  TYR121      0.1639
    172  C         43.2250   25.6240  107.4020 C.2   121  TYR121      0.2290
    173  O         43.4440   25.6690  108.6140 O.2   121  TYR121     -0.2864
    174  CB        45.4780   25.8020  106.3100 C.3   121  TYR121      0.0560
    175  CG        46.3850   26.5930  105.4020 C.ar  121  TYR121     -0.0198
    176  CD1       47.1340   27.6600  105.8960 C.ar  121  TYR121     -0.0009
    177  CD2       46.4010   26.3580  104.0260 C.ar  121  TYR121     -0.0009
    178  CE1       47.8640   28.4820  105.0450 C.ar  121  TYR121      0.0417
    179  CE2       47.1220   27.1720  103.1710 C.ar  121  TYR121      0.0417
    180  CZ        47.8470   28.2370  103.6880 C.ar  121  TYR121      0.1957
    181  OH        48.5190   29.0810  102.8460 O.3   121  TYR121     -0.2866
    182  N         62.2190   19.5680   98.1380 N.3   147  TYR147     -0.1241
    183  CA        61.9040   18.8230   99.3480 C.3   147  TYR147      0.1605
    184  C         61.2700   17.4770   99.0340 C.2   147  TYR147      0.2264
    185  O         60.7490   16.7970   99.9220 O.2   147  TYR147     -0.2867
    186  CB        60.9930   19.6530  100.2530 C.3   147  TYR147      0.0534
    187  CG        61.6390   20.9490  100.6700 C.ar  147  TYR147     -0.0201
    188  CD1       61.2640   22.1610  100.0910 C.ar  147  TYR147     -0.0009
    189  CD2       62.6720   20.9550  101.6080 C.ar  147  TYR147     -0.0009
    190  CE1       61.9060   23.3470  100.4360 C.ar  147  TYR147      0.0417
    191  CE2       63.3220   22.1340  101.9600 C.ar  147  TYR147      0.0417
    192  CZ        62.9360   23.3240  101.3730 C.ar  147  TYR147      0.1957
    193  OH        63.5830   24.4840  101.7270 O.3   147  TYR147     -0.2866
@<TRIPOS>BOND
     1    71    70    1
     2    70    69    2
     3    70    72    1
     4    69    68    1
     5    68    67    1
     6    67    66    1
     7    66    63    1
     8    65    64    2
     9    64    63    1
    10    63    62    1
    11    62    60   am
    12    58    59    1
    13    60    59    1
    14    60    61    2
    15    80    81    1
    16    80    79    1
    17   102   100   am
    18    78    79    1
    19    78    77    1
    20    73    74    1
    21   100    99    1
    22   100   101    2
    23    77    74    1
    24    99    96    1
    25   122   120   am
    26    74    75    1
    27    76    75    2
    28    98    97    2
    29   113   111    1
    30     5     6    1
    31     5     2    1
    32   120   121    2
    33   120   119    1
    34     8     6   ar
    35     8    10   ar
    36   111   108    1
    37   111   112    1
    38    96    97    1
    39    96    95    1
    40     6     7   ar
    41    97   103   am
    42   119   118    1
    43    10     9   ar
    44     4     3    2
    45   110   109    2
    46   108   109    1
    47   108   107    1
    48     2     3    1
    49     2     1    1
    50    95    89   am
    51     7     9   ar
    52   182   183    1
    53     3    11   am
    54   103   104    1
    55    89    90    2
    56    89    88    1
    57   118   115    1
    58   104   105    1
    59   114   115    1
    60   184   183    1
    61   184   185    2
    62    17    18    1
    63    17    16    1
    64   183   186    1
    65   105   106    2
    66    88    91    1
    67    88    87    1
    68    11    12    1
    69    57    55   am
    70   115   116    1
    71    15    12    1
    72    15    16    1
    73    18    19    2
    74    12    13    1
    75    55    56    2
    76    55    54    1
    77   188   190   ar
    78   188   187   ar
    79    91    92    1
    80   186   187    1
    81    87    84   am
    82   190   192   ar
    83    19    21    1
    84    19    20    1
    85    93    92    2
    86   187   189   ar
    87    54    53    1
    88   116   117    2
    89    85    84    2
    90    84    83    1
    91    86    83    1
    92    92    94   am
    93    52    51    2
    94   192   193    1
    95   192   191   ar
    96    13    14    2
    97   189   191   ar
    98    51    50    1
    99    53    50    1
   100    83    82    1
   101    50    49    1
   102   181   180    1
   103    29    27    1
   104   179   180   ar
   105   179   177   ar
   106    27    26    1
   107   180   178   ar
   108    48    47    1
   109   177   175   ar
   110    22    23    1
   111    47    46    1
   112    26    23    1
   113    26    28    1
   114   164   163    2
   115   123   124    1
   116   178   176   ar
   117    23    24    1
   118   129   131   ar
   119   129   128   ar
   120   127   124    1
   121   127   128    1
   122    39    37   ar
   123    39    40   ar
   124   175   176   ar
   125   175   174    1
   126   124   125    1
   127    44    43    2
   128   131   133   ar
   129    37    35   ar
   130   128   130   ar
   131   163   162    1
   132   163   170   am
   133    40    38   ar
   134    46    45    1
   135   174   171    1
   136   171   170    1
   137   171   172    1
   138   167   166    1
   139   167   168    1
   140   165   162    1
   141   165   166    1
   142    43    42    1
   143    24    25    2
   144   162   161    1
   145   133   132   ar
   146   125   126    2
   147   130   132   ar
   148    35    34    1
   149    35    36   ar
   150   160   158    1
   151   172   173    2
   152    45    42    1
   153   168   169    1
   154    38    36   ar
   155    42    41    1
   156    34    31    1
   157    41    32   am
   158   150   152   ar
   159   150   148   ar
   160   152   151   ar
   161   158   159    1
   162   158   157    1
   163   146   145    2
   164    32    31    1
   165    32    33    2
   166   156   155    2
   167    31    30    1
   168   157   154    1
   169   154   155    1
   170   154   153    1
   171   151   149   ar
   172   148   147    1
   173   148   149   ar
   174   145   153   am
   175   145   144    1
   176   147   144    1
   177   144   143    1
   178   141   140    2
   179   140   139    1
   180   140   142   am
   181   139   138    1
   182   138   135    1
   183   137   136    2
   184   135   136    1
   185   135   134    1
