@<TRIPOS>MOLECULE
tmp/2ojvA01.pdb
 90 85 0 0 0
SMALL
GASTEIGER

@<TRIPOS>ATOM
      1  N        -16.2180    4.3070   14.7410 N.3   205  ASN205     -0.1240
      2  CA       -17.2960    5.2130   14.3930 C.3   205  ASN205      0.1653
      3  C        -18.4240    4.3160   13.8770 C.2   205  ASN205      0.2266
      4  O        -18.4710    3.9630   12.6880 O.2   205  ASN205     -0.2867
      5  CB       -16.8880    6.2460   13.3270 C.3   205  ASN205      0.1155
      6  CG       -17.9090    7.3720   13.0720 C.2   205  ASN205      0.2627
      7  OD1      -19.0900    7.2300   13.3670 O.2   205  ASN205     -0.2716
      8  ND2      -17.4410    8.4870   12.5120 N.am  205  ASN205     -0.0877
      9  N        -21.5320    5.2550   14.0420 N.3   207  SER207     -0.1202
     10  CA       -22.6680    6.1010   13.7460 C.3   207  SER207      0.2020
     11  C        -22.9280    6.1250   12.2760 C.2   207  SER207      0.2619
     12  O        -23.9750    6.5590   11.8460 O.2   207  SER207     -0.2717
     13  CB       -22.4250    7.5140   14.2590 C.3   207  SER207      0.2103
     14  OG       -22.3010    7.4760   15.6730 O.3   207  SER207     -0.2182
     15  N        -21.9520    5.6790   11.5000 N.am  208  SER208     -0.1951
     16  CA       -22.1030    5.6330   10.0580 C.3   208  SER208      0.1924
     17  C        -21.5240    4.3400    9.4800 C.2   208  SER208      0.2314
     18  O        -20.5930    3.7620   10.0170 O.2   208  SER208     -0.2863
     19  CB       -21.4920    6.8740    9.4080 C.3   208  SER208      0.2116
     20  OG       -20.3090    7.2550   10.0720 O.3   208  SER208     -0.2180
     21  N        -19.5080    3.6360    7.3830 N.3   210  LEU210     -0.1245
     22  CA       -18.3170    3.8470    6.5900 C.3   210  LEU210      0.1561
     23  C        -17.0520    3.1600    7.0730 C.2   210  LEU210      0.2260
     24  O        -15.9930    3.3610    6.4940 O.2   210  LEU210     -0.2867
     25  CB       -18.1080    5.3470    6.3830 C.3   210  LEU210      0.0270
     26  CG       -19.3890    6.0900    5.9660 C.3   210  LEU210      0.0019
     27  CD1      -19.2900    7.5910    6.2520 C.3   210  LEU210      0.0001
     28  CD2      -19.7250    5.8200    4.5010 C.3   210  LEU210      0.0001
     29  N        -15.1690    3.6780    9.6880 N.3   212  LEU212     -0.1231
     30  CA       -14.1930    4.6420   10.1640 C.3   212  LEU212      0.1693
     31  C        -13.9090    4.4820   11.6580 C.2   212  LEU212      0.2592
     32  O        -14.7040    3.9230   12.4300 O.2   212  LEU212     -0.2718
     33  CB       -14.7190    6.0640    9.9490 C.3   212  LEU212      0.0284
     34  CG       -15.1380    6.5680    8.5700 C.3   212  LEU212      0.0019
     35  CD1      -15.8300    7.9310    8.7190 C.3   212  LEU212      0.0001
     36  CD2      -13.9440    6.6730    7.6120 C.3   212  LEU212      0.0001
     37  N        -12.7670    5.0000   12.0670 N.am  213  MET213     -0.1965
     38  CA       -12.4630    5.0580   13.4690 C.3   213  MET213      0.1736
     39  C        -12.9670    6.4140   13.8980 C.2   213  MET213      0.2616
     40  O        -12.9590    7.3410   13.1160 O.2   213  MET213     -0.2715
     41  CB       -10.9560    4.9770   13.6980 C.3   213  MET213      0.0427
     42  CG       -10.3110    3.6950   13.1950 C.3   213  MET213      0.0599
     43  SD       -10.8560    2.3090   14.1700 S.3   213  MET213     -0.1393
     44  CE        -9.7550    2.3880   15.6470 C.3   213  MET213      0.0692
     45  N        -13.4170    6.5110   15.1380 N.am  214  ALA214     -0.1963
     46  CA       -13.8850    7.7430   15.7160 C.3   214  ALA214      0.1728
     47  C        -12.7320    8.7270   15.7950 C.2   214  ALA214      0.2616
     48  O        -11.6170    8.3290   16.1110 O.2   214  ALA214     -0.2715
     49  CB       -14.4070    7.4710   17.0970 C.3   214  ALA214      0.0334
     50  N        -12.9960   10.0060   15.5110 N.am  215  VAL215     -0.1977
     51  CA       -11.9690   11.0310   15.6060 C.3   215  VAL215      0.1596
     52  C        -12.4050   12.0700   16.6170 C.2   215  VAL215      0.2287
     53  O        -13.5940   12.1830   16.9030 O.2   215  VAL215     -0.2864
     54  CB       -11.7020   11.7150   14.2590 C.3   215  VAL215      0.0276
     55  CG1      -11.0720   10.7380   13.2740 C.3   215  VAL215      0.0022
     56  CG2      -13.0050   12.2860   13.7020 C.3   215  VAL215      0.0022
     57  N        -13.7210   15.3130   18.3110 N.3   217  GLN217     -0.1245
     58  CA       -14.7560   16.2300   17.8300 C.3   217  GLN217      0.1566
     59  C        -14.5280   17.6580   18.2510 C.2   217  GLN217      0.2260
     60  O        -15.2920   18.5350   17.8530 O.2   217  GLN217     -0.2867
     61  CB       -16.1230   15.7310   18.3000 C.3   217  GLN217      0.0367
     62  CG       -16.4490   14.3780   17.7330 C.3   217  GLN217      0.0905
     63  CD       -16.6710   14.4400   16.2390 C.2   217  GLN217      0.2608
     64  OE1      -17.4110   15.2930   15.7720 O.2   217  GLN217     -0.2717
     65  NE2      -16.1420   13.6350   15.3260 N.am  217  GLN217     -0.0878
     66  N         -9.0070   19.9740   15.5090 N.3   220  TRP220     -0.1241
     67  CA        -8.6270   19.5660   14.1740 C.3   220  TRP220      0.1605
     68  C         -7.2470   20.0840   13.8250 C.2   220  TRP220      0.2264
     69  O         -6.8230   21.0980   14.3520 O.2   220  TRP220     -0.2867
     70  CB        -9.6710   20.0620   13.1690 C.3   220  TRP220      0.0550
     71  CG       -10.9020   19.2750   13.2830 C.ar  220  TRP220      0.0003
     72  CD1      -11.9090   19.4530   14.1860 C.ar  220  TRP220      0.0946
     73  CD2      -11.2350   18.1110   12.5290 C.ar  220  TRP220      0.0152
     74  NE1      -12.8610   18.4780   14.0230 N.ar  220  TRP220     -0.2442
     75  CE2      -12.4750   17.6420   13.0090 C.ar  220  TRP220      0.0810
     76  CE3      -10.6130   17.4180   11.4810 C.ar  220  TRP220      0.0012
     77  CZ2      -13.1120   16.5270   12.4770 C.ar  220  TRP220      0.0191
     78  CZ3      -11.2420   16.3080   10.9480 C.ar  220  TRP220      0.0001
     79  CH2      -12.4860   15.8700   11.4470 C.ar  220  TRP220      0.0015
     80  N        -11.9920    5.3560    3.2980 N.3   278  ARG278     -0.1245
     81  CA       -12.6560    6.2090    2.3200 C.3   278  ARG278      0.1563
     82  C        -12.3420    5.6940    0.9210 C.2   278  ARG278      0.2260
     83  O        -13.2510    5.4390    0.1310 O.2   278  ARG278     -0.2867
     84  CB       -12.2780    7.6730    2.4770 C.3   278  ARG278      0.0307
     85  CG       -13.1300    8.3780    3.5050 C.3   278  ARG278      0.0489
     86  CD       -12.6070    9.7370    3.9080 C.3   278  ARG278      0.2205
     87  NE       -13.0770   10.0800    5.2510 N.pl3 278  ARG278     -0.0865
     88  CZ       -12.2740   10.3810    6.2720 C.cat 278  ARG278      0.5346
     89  NH1      -10.9390   10.3900    6.1110 N.pl3 278  ARG278      0.1354
     90  NH2      -12.8100   10.6760    7.4570 N.pl3 278  ARG278      0.1354
@<TRIPOS>BOND
     1    83    82    2
     2    82    81    1
     3    81    84    1
     4    81    80    1
     5    84    85    1
     6    85    86    1
     7    86    87    1
     8    28    26    1
     9    87    88    2
    10    26    27    1
    11    26    25    1
    12    89    88    1
    13    88    90    1
    14    25    22    1
    15    24    23    2
    16    22    23    1
    17    22    21    1
    18    36    34    1
    19    34    35    1
    20    34    33    1
    21    19    16    1
    22    19    20    1
    23    17    18    2
    24    17    16    1
    25    29    30    1
    26    33    30    1
    27    16    15    1
    28    30    31    1
    29    78    79   ar
    30    78    76   ar
    31    79    77   ar
    32    76    73   ar
    33    15    11   am
    34    31    37   am
    35    31    32    2
    36    12    11    2
    37    37    38    1
    38    11    10    1
    39    77    75   ar
    40     8     6   am
    41    73    75   ar
    42    73    71   ar
    43     4     3    2
    44    75    74   ar
    45     6     5    1
    46     6     7    2
    47    40    39    2
    48    70    71    1
    49    70    67    1
    50    42    41    1
    51    42    43    1
    52    55    54    1
    53    71    72   ar
    54     5     2    1
    55    38    41    1
    56    38    39    1
    57    56    54    1
    58    10     9    1
    59    10    13    1
    60    68    67    1
    61    68    69    2
    62     3     2    1
    63    39    45   am
    64    74    72   ar
    65    43    44    1
    66    67    66    1
    67    13    14    1
    68    54    51    1
    69     2     1    1
    70    45    46    1
    71    65    63   am
    72    50    51    1
    73    50    47   am
    74    51    52    1
    75    46    47    1
    76    46    49    1
    77    64    63    2
    78    47    48    2
    79    63    62    1
    80    52    53    2
    81    62    61    1
    82    58    59    1
    83    58    61    1
    84    58    57    1
    85    60    59    2
