@<TRIPOS>MOLECULE
tmp/2ojwC00.pdb
 182 175 0 0 0
SMALL
GASTEIGER

@<TRIPOS>ATOM
      1  N        -29.6260   52.1420  -27.8070 N.3   132  TRP132     -0.1227
      2  CA       -28.6140   51.0430  -27.7800 C.3   132  TRP132      0.1737
      3  C        -27.7880   51.0470  -26.4740 C.2   132  TRP132      0.2595
      4  O        -27.4690   52.1130  -25.9630 O.2   132  TRP132     -0.2718
      5  CB       -27.6290   51.1860  -28.9280 C.3   132  TRP132      0.0564
      6  CG       -28.1720   51.0350  -30.3030 C.ar  132  TRP132      0.0003
      7  CD1      -29.4590   50.7000  -30.6800 C.ar  132  TRP132      0.0946
      8  CD2      -27.4260   51.1610  -31.4970 C.ar  132  TRP132      0.0152
      9  NE1      -29.5550   50.6530  -32.0510 N.ar  132  TRP132     -0.2442
     10  CE2      -28.3200   50.9320  -32.5810 C.ar  132  TRP132      0.0810
     11  CE3      -26.0880   51.4980  -31.7740 C.ar  132  TRP132      0.0012
     12  CZ2      -27.9100   50.9840  -33.8890 C.ar  132  TRP132      0.0191
     13  CZ3      -25.6820   51.5400  -33.0900 C.ar  132  TRP132      0.0001
     14  CH2      -26.5910   51.3060  -34.1350 C.ar  132  TRP132      0.0015
     15  N        -27.4540   49.8530  -25.9590 N.am  133  PHE133     -0.1962
     16  CA       -26.6820   49.6820  -24.7140 C.3   133  PHE133      0.1771
     17  C        -25.5320   48.7170  -24.9900 C.2   133  PHE133      0.2620
     18  O        -25.6280   47.8260  -25.8300 O.2   133  PHE133     -0.2715
     19  CB       -27.5420   49.1510  -23.5480 C.3   133  PHE133      0.0574
     20  CG       -28.7890   49.9800  -23.2320 C.ar  133  PHE133     -0.0200
     21  CD1      -28.7480   50.9950  -22.2920 C.ar  133  PHE133     -0.0042
     22  CD2      -30.0100   49.7180  -23.8600 C.ar  133  PHE133     -0.0042
     23  CE1      -29.8350   51.7590  -22.0080 C.ar  133  PHE133     -0.0003
     24  CE2      -31.1680   50.5180  -23.5550 C.ar  133  PHE133     -0.0003
     25  CZ       -31.0580   51.5140  -22.6260 C.ar  133  PHE133     -0.0000
     26  N        -24.4200   48.9320  -24.2920 N.am  134  GLY134     -0.1954
     27  CA       -23.2900   47.9920  -24.2440 C.3   134  GLY134      0.1869
     28  C        -22.8560   47.8970  -22.7850 C.2   134  GLY134      0.2309
     29  O        -22.5670   48.9280  -22.1750 O.2   134  GLY134     -0.2863
     30  N        -20.3940   46.2200  -19.6980 N.3   136  GLU136     -0.1245
     31  CA       -19.0610   45.6510  -19.4280 C.3   136  GLU136      0.1567
     32  C        -19.1740   44.8490  -18.1330 C.2   136  GLU136      0.2260
     33  O        -19.0780   45.4200  -17.0720 O.2   136  GLU136     -0.2867
     34  CB       -17.9670   46.7650  -19.2920 C.3   136  GLU136      0.0388
     35  CG       -17.7860   47.6390  -20.5470 C.3   136  GLU136      0.1160
     36  CD       -17.0560   48.9370  -20.2710 C.2   136  GLU136      0.3649
     37  OE1      -15.8680   48.8910  -19.8370 O.co2 136  GLU136     -0.2457
     38  OE2      -17.6640   50.0220  -20.4810 O.co2 136  GLU136     -0.2457
     39  N        -19.0150   41.3770  -27.6430 N.3   193  ALA193     -0.1245
     40  CA       -18.2270   42.4170  -28.2690 C.3   193  ALA193      0.1562
     41  C        -16.7020   42.3680  -27.9500 C.2   193  ALA193      0.2260
     42  O        -15.8790   43.0540  -28.6200 O.2   193  ALA193     -0.2867
     43  CB       -18.7700   43.7470  -27.7590 C.3   193  ALA193      0.0290
     44  N        -11.2990   41.1230  -21.6850 N.3   196  ASN196     -0.1240
     45  CA       -10.0280   41.5410  -21.1210 C.3   196  ASN196      0.1653
     46  C         -9.8830   41.0870  -19.6390 C.2   196  ASN196      0.2266
     47  O        -10.8800   40.9380  -18.8710 O.2   196  ASN196     -0.2867
     48  CB        -9.7630   43.0770  -21.2170 C.3   196  ASN196      0.1155
     49  CG       -10.7710   43.9340  -20.4080 C.2   196  ASN196      0.2627
     50  OD1      -11.8450   44.2140  -20.9030 O.2   196  ASN196     -0.2716
     51  ND2      -10.4130   44.3490  -19.1490 N.am  196  ASN196     -0.0877
     52  N        -13.4320   40.3510  -17.4670 N.3   205  GLU205     -0.1245
     53  CA       -14.3970   41.2350  -18.0100 C.3   205  GLU205      0.1567
     54  C        -14.8080   40.7700  -19.4380 C.2   205  GLU205      0.2260
     55  O        -13.9670   40.2700  -20.1740 O.2   205  GLU205     -0.2867
     56  CB       -13.8230   42.6650  -17.9950 C.3   205  GLU205      0.0388
     57  CG       -14.7050   43.6750  -18.6510 C.3   205  GLU205      0.1160
     58  CD       -14.0560   45.0530  -18.8050 C.2   205  GLU205      0.3649
     59  OE1      -14.4570   45.7770  -19.7550 O.co2 205  GLU205     -0.2457
     60  OE2      -13.2440   45.4360  -17.9280 O.co2 205  GLU205     -0.2457
     61  N        -17.7160   42.2450  -22.6520 N.3   207  GLN207     -0.1231
     62  CA       -18.6510   43.2720  -23.0950 C.3   207  GLN207      0.1698
     63  C        -19.7780   42.6270  -23.9400 C.2   207  GLN207      0.2592
     64  O        -19.5280   41.7710  -24.7790 O.2   207  GLN207     -0.2718
     65  CB       -17.9210   44.3820  -23.8720 C.3   207  GLN207      0.0381
     66  CG       -16.7250   45.0660  -23.0520 C.3   207  GLN207      0.0905
     67  CD       -15.3330   44.4330  -23.3690 C.2   207  GLN207      0.2608
     68  OE1      -15.0800   44.0320  -24.4870 O.2   207  GLN207     -0.2717
     69  NE2      -14.4630   44.3240  -22.3860 N.am  207  GLN207     -0.0878
     70  N        -21.0120   43.0690  -23.6970 N.am  208  ILE208     -0.1966
     71  CA       -22.1910   42.6150  -24.4690 C.3   208  ILE208      0.1727
     72  C        -22.8600   43.8500  -25.0850 C.2   208  ILE208      0.2617
     73  O        -23.1930   44.7980  -24.3740 O.2   208  ILE208     -0.2715
     74  CB       -23.2350   41.9010  -23.5790 C.3   208  ILE208      0.0290
     75  CG1      -22.6380   40.6760  -22.8950 C.3   208  ILE208      0.0022
     76  CG2      -24.4170   41.4020  -24.4620 C.3   208  ILE208      0.0023
     77  CD1      -22.1180   39.5810  -23.8800 C.3   208  ILE208      0.0001
     78  N        -23.0250   43.8660  -26.4000 N.am  209  GLY209     -0.1941
     79  CA       -23.4500   45.0860  -27.0400 C.3   209  GLY209      0.1998
     80  C        -22.9930   45.2900  -28.4710 C.2   209  GLY209      0.2480
     81  O        -22.0240   44.6160  -28.8410 O.2   209  GLY209     -0.2729
     82  N        -23.2940   46.4860  -29.0270 N.am  210  PRO210     -0.2726
     83  CA       -24.5860   47.2240  -28.7860 C.3   210  PRO210      0.1402
     84  C        -25.8460   46.5010  -29.0540 C.2   210  PRO210      0.2269
     85  O        -26.0490   46.0180  -30.1680 O.2   210  PRO210     -0.2865
     86  CB       -24.4390   48.4990  -29.6250 C.3   210  PRO210      0.0296
     87  CG       -22.9390   48.5410  -30.0030 C.3   210  PRO210      0.0237
     88  CD       -22.6440   47.0820  -30.2020 C.3   210  PRO210      0.0939
     89  N        -22.8250   51.5630  -21.2740 N.3   257  ASN257     -0.1225
     90  CA       -22.6700   52.4970  -22.3740 C.3   257  ASN257      0.1785
     91  C        -24.0250   52.6560  -23.0610 C.2   257  ASN257      0.2597
     92  O        -24.7500   51.6960  -23.1780 O.2   257  ASN257     -0.2718
     93  CB       -21.5580   52.0380  -23.3450 C.3   257  ASN257      0.1169
     94  CG       -20.2160   51.8640  -22.6540 C.2   257  ASN257      0.2627
     95  OD1      -19.3570   52.7580  -22.6810 O.2   257  ASN257     -0.2716
     96  ND2      -20.0080   50.6990  -22.0270 N.am  257  ASN257     -0.0877
     97  N        -24.3360   53.8550  -23.5650 N.am  258  PHE258     -0.1962
     98  CA       -25.7210   54.2090  -23.9910 C.3   258  PHE258      0.1771
     99  C        -25.7400   55.2660  -25.0840 C.2   258  PHE258      0.2620
    100  O        -25.0470   56.2660  -25.0220 O.2   258  PHE258     -0.2715
    101  CB       -26.5170   54.6810  -22.7540 C.3   258  PHE258      0.0574
    102  CG       -27.8840   55.2350  -23.0390 C.ar  258  PHE258     -0.0200
    103  CD1      -28.7410   54.6320  -23.9510 C.ar  258  PHE258     -0.0042
    104  CD2      -28.3460   56.3730  -22.3510 C.ar  258  PHE258     -0.0042
    105  CE1      -30.0400   55.1440  -24.1960 C.ar  258  PHE258     -0.0003
    106  CE2      -29.6270   56.9020  -22.5990 C.ar  258  PHE258     -0.0003
    107  CZ       -30.4770   56.2690  -23.5140 C.ar  258  PHE258     -0.0000
    108  N        -26.5560   55.0450  -26.0950 N.am  259  SER259     -0.1950
    109  CA       -26.8170   56.0980  -27.0900 C.3   259  SER259      0.1924
    110  C        -28.2030   55.9810  -27.6470 C.2   259  SER259      0.2314
    111  O        -28.8100   54.9020  -27.6180 O.2   259  SER259     -0.2863
    112  CB       -25.8340   56.0270  -28.2360 C.3   259  SER259      0.2116
    113  OG       -25.9430   54.7840  -28.8970 O.3   259  SER259     -0.2180
    114  N        -26.0290   59.2710  -31.8930 N.3   264  ARG264     -0.1245
    115  CA       -25.1980   58.6800  -32.9310 C.3   264  ARG264      0.1563
    116  C        -25.0520   59.5240  -34.1960 C.2   264  ARG264      0.2260
    117  O        -24.0780   59.3460  -34.9440 O.2   264  ARG264     -0.2867
    118  CB       -25.7720   57.3420  -33.3700 C.3   264  ARG264      0.0307
    119  CG       -25.5890   56.2020  -32.4350 C.3   264  ARG264      0.0489
    120  CD       -26.4590   55.0440  -32.9370 C.3   264  ARG264      0.2205
    121  NE       -27.1790   54.7100  -31.7670 N.pl3 264  ARG264     -0.0865
    122  CZ       -28.4230   54.3330  -31.6420 C.cat 264  ARG264      0.5346
    123  NH1      -29.2740   54.1330  -32.6510 N.pl3 264  ARG264      0.1354
    124  NH2      -28.7800   54.1030  -30.4060 N.pl3 264  ARG264      0.1354
    125  N        -11.8180   57.9990  -15.9180 N.3   318  ARG318     -0.1245
    126  CA       -12.1610   56.7420  -15.2360 C.3   318  ARG318      0.1563
    127  C        -12.3470   56.8790  -13.7300 C.2   318  ARG318      0.2260
    128  O        -12.6820   55.9100  -13.0720 O.2   318  ARG318     -0.2867
    129  CB       -11.1330   55.6450  -15.5700 C.3   318  ARG318      0.0307
    130  CG       -11.2850   55.0960  -17.0090 C.3   318  ARG318      0.0489
    131  CD       -10.3130   53.9670  -17.2160 C.3   318  ARG318      0.2205
    132  NE       -10.7090   53.1120  -18.3200 N.pl3 318  ARG318     -0.0865
    133  CZ       -10.4990   53.3800  -19.6090 C.cat 318  ARG318      0.5346
    134  NH1       -9.9090   54.5080  -19.9940 N.pl3 318  ARG318      0.1354
    135  NH2      -10.9170   52.5080  -20.5220 N.pl3 318  ARG318      0.1354
    136  N        -18.2470   58.7340  -17.8870 N.3   323  ARG323     -0.1245
    137  CA       -17.1650   59.0380  -18.7980 C.3   323  ARG323      0.1563
    138  C        -17.6440   59.2020  -20.2510 C.2   323  ARG323      0.2260
    139  O        -18.3400   58.3570  -20.8180 O.2   323  ARG323     -0.2867
    140  CB       -16.0680   57.9790  -18.6710 C.3   323  ARG323      0.0307
    141  CG       -14.9870   57.9460  -19.7420 C.3   323  ARG323      0.0489
    142  CD       -13.9000   56.9970  -19.3720 C.3   323  ARG323      0.2205
    143  NE       -13.2630   56.4620  -20.5780 N.pl3 323  ARG323     -0.0865
    144  CZ       -13.5260   55.2830  -21.1220 C.cat 323  ARG323      0.5346
    145  NH1      -14.3720   54.4340  -20.5500 N.pl3 323  ARG323      0.1354
    146  NH2      -12.9180   54.9170  -22.2270 N.pl3 323  ARG323      0.1354
    147  N        -21.7230   59.7040  -30.6920 N.3   334  GLY334     -0.1210
    148  CA       -21.6020   58.3320  -30.1730 C.3   334  GLY334      0.1956
    149  C        -22.4630   58.0380  -28.9470 C.2   334  GLY334      0.2611
    150  O        -23.6820   58.0620  -29.0300 O.2   334  GLY334     -0.2717
    151  N        -21.7930   57.7500  -27.8200 N.am  335  TYR335     -0.1976
    152  CA       -22.3930   57.2410  -26.5790 C.3   335  TYR335      0.1639
    153  C        -21.6430   57.8030  -25.3540 C.2   335  TYR335      0.2290
    154  O        -20.5870   58.4350  -25.4880 O.2   335  TYR335     -0.2864
    155  CB       -22.3280   55.7020  -26.5710 C.3   335  TYR335      0.0560
    156  CG       -20.9370   55.1020  -26.7110 C.ar  335  TYR335     -0.0198
    157  CD1      -20.2010   54.7420  -25.5950 C.ar  335  TYR335     -0.0009
    158  CD2      -20.3490   54.9150  -27.9600 C.ar  335  TYR335     -0.0009
    159  CE1      -18.9240   54.1870  -25.7130 C.ar  335  TYR335      0.0417
    160  CE2      -19.0480   54.3720  -28.0820 C.ar  335  TYR335      0.0417
    161  CZ       -18.3530   54.0040  -26.9290 C.ar  335  TYR335      0.1957
    162  OH       -17.0880   53.4530  -26.9890 O.3   335  TYR335     -0.2866
    163  N        -20.6070   56.6310  -21.0720 N.3   337  GLU337     -0.1245
    164  CA       -20.4400   55.5120  -20.1660 C.3   337  GLU337      0.1567
    165  C        -20.8830   55.8580  -18.7500 C.2   337  GLU337      0.2260
    166  O        -20.2870   56.7540  -18.1300 O.2   337  GLU337     -0.2867
    167  CB       -18.9410   55.1580  -20.1180 C.3   337  GLU337      0.0388
    168  CG       -18.6470   53.8950  -19.3270 C.3   337  GLU337      0.1160
    169  CD       -17.1930   53.7340  -18.9500 C.2   337  GLU337      0.3649
    170  OE1      -16.4390   54.7430  -18.7610 O.co2 337  GLU337     -0.2457
    171  OE2      -16.8030   52.5760  -18.8170 O.co2 337  GLU337     -0.2457
    172  N        -20.4100   54.5600  -15.3160 N.3   339  ARG339     -0.1245
    173  CA       -19.4750   53.6870  -14.5660 C.3   339  ARG339      0.1563
    174  C        -19.9430   53.3070  -13.1810 C.2   339  ARG339      0.2260
    175  O        -19.2090   52.6030  -12.4480 O.2   339  ARG339     -0.2867
    176  CB       -18.0930   54.3480  -14.4380 C.3   339  ARG339      0.0307
    177  CG       -17.5190   54.7550  -15.7800 C.3   339  ARG339      0.0489
    178  CD       -16.1150   55.3660  -15.6760 C.3   339  ARG339      0.2205
    179  NE       -15.1750   54.4890  -14.9890 N.pl3 339  ARG339     -0.0865
    180  CZ       -14.4110   53.5650  -15.5600 C.cat 339  ARG339      0.5346
    181  NH1      -14.3940   53.3550  -16.8770 N.pl3 339  ARG339      0.1354
    182  NH2      -13.6420   52.8560  -14.8100 N.pl3 339  ARG339      0.1354
@<TRIPOS>BOND
     1   117   116    2
     2   116   115    1
     3    14    12   ar
     4    14    13   ar
     5    12    10   ar
     6   118   115    1
     7   118   119    1
     8    13    11   ar
     9   120   119    1
    10   120   121    1
    11   115   114    1
    12   123   122    1
    13    10     9   ar
    14    10     8   ar
    15     9     7   ar
    16    11     8   ar
    17   121   122    2
    18   122   124    1
    19     8     6   ar
    20   147   148    1
    21     7     6   ar
    22     6     5    1
    23    88    87    1
    24    88    82    1
    25   148   149    1
    26    85    84    2
    27    87    86    1
    28    86    83    1
    29    84    83    1
    30   150   149    2
    31    82    83    1
    32    82    80   am
    33   149   151   am
    34     5     2    1
    35   113   112    1
    36    81    80    2
    37    42    41    2
    38    80    79    1
    39    40    41    1
    40    40    43    1
    41    40    39    1
    42   112   109    1
    43   160   158   ar
    44   160   161   ar
    45   158   156   ar
    46   151   152    1
    47     1     2    1
    48     2     3    1
    49   110   111    2
    50   110   109    1
    51   109   108    1
    52    79    78    1
    53   162   161    1
    54   161   159   ar
    55   156   155    1
    56   156   157   ar
    57   152   155    1
    58   152   153    1
    59     3     4    2
    60     3    15   am
    61    78    72   am
    62   108    99   am
    63    15    16    1
    64    18    17    2
    65   159   157   ar
    66   154   153    2
    67    72    71    1
    68    72    73    2
    69    99   100    2
    70    99    98    1
    71    17    16    1
    72    17    26   am
    73    64    63    2
    74    16    19    1
    75    68    67    2
    76    71    70    1
    77    71    74    1
    78    76    74    1
    79    26    27    1
    80    27    28    1
    81   105   103   ar
    82   105   107   ar
    83    98    97    1
    84    98   101    1
    85   103   102   ar
    86    63    70   am
    87    63    62    1
    88    77    75    1
    89    65    62    1
    90    65    66    1
    91    22    24   ar
    92    22    20   ar
    93    74    75    1
    94    97    91   am
    95    24    25   ar
    96    19    20    1
    97   107   106   ar
    98    67    66    1
    99    67    69   am
   100    93    94    1
   101    93    90    1
   102    20    21   ar
   103    92    91    2
   104    62    61    1
   105    91    90    1
   106   102   101    1
   107   102   104   ar
   108    28    29    2
   109    95    94    2
   110    94    96   am
   111    25    23   ar
   112   106   104   ar
   113    90    89    1
   114    21    23   ar
   115   146   144    1
   116    44    45    1
   117    48    45    1
   118    48    49    1
   119   144   143    2
   120   144   145    1
   121    45    46    1
   122   163   164    1
   123    50    49    2
   124   139   138    2
   125   143   142    1
   126    35    36    1
   127    35    34    1
   128   135   133    1
   129    38    36   ar
   130    49    51   am
   131    36    37   ar
   132   138   137    1
   133    55    54    2
   134   164   167    1
   135   164   165    1
   136   167   168    1
   137   134   133    1
   138    59    58   ar
   139   141   142    1
   140   141   140    1
   141    30    31    1
   142    46    47    2
   143   133   132    2
   144    54    53    1
   145    31    34    1
   146    31    32    1
   147   168   169    1
   148   169   171   ar
   149   169   170   ar
   150    58    57    1
   151    58    60   ar
   152   137   140    1
   153   137   136    1
   154   165   166    2
   155    57    56    1
   156   132   131    1
   157    32    33    2
   158    53    56    1
   159    53    52    1
   160   131   130    1
   161   130   129    1
   162   181   180    1
   163   125   126    1
   164   177   178    1
   165   177   176    1
   166   178   179    1
   167   129   126    1
   168   180   179    2
   169   180   182    1
   170   172   173    1
   171   126   127    1
   172   173   176    1
   173   173   174    1
   174   127   128    2
   175   174   175    2
