@<TRIPOS>MOLECULE
tmp/2ojxA00.pdb
 114 112 0 0 0
SMALL
GASTEIGER

@<TRIPOS>ATOM
      1  N         18.8070    2.2740    5.2660 N.3    40  SER40      -0.1202
      2  CA        20.0090    3.1090    5.3650 C.3    40  SER40       0.2020
      3  C         19.7550    4.5830    5.1470 C.2    40  SER40       0.2619
      4  O         20.4320    5.4180    5.7280 O.2    40  SER40      -0.2717
      5  CB        21.0450    2.6390    4.3460 C.3    40  SER40       0.2103
      6  OG        21.4160    1.3000    4.6310 O.3    40  SER40      -0.2182
      7  N         18.7770    4.8950    4.3050 N.am   41  LYS41      -0.1965
      8  CA        18.4630    6.2820    3.9760 C.3    41  LYS41       0.1728
      9  C         17.0200    6.3350    3.4830 C.2    41  LYS41       0.2616
     10  O         16.5170    5.3490    2.9230 O.2    41  LYS41      -0.2715
     11  CB        19.3770    6.8340    2.8470 C.3    41  LYS41       0.0311
     12  CG        20.8510    6.4340    2.9520 C.3    41  LYS41       0.0038
     13  CD        21.7030    7.0610    1.8810 C.3    41  LYS41       0.0206
     14  CE        23.0830    6.3900    1.8420 C.3    41  LYS41       0.1093
     15  NZ        23.2760    5.4580    0.6420 N.3    41  LYS41      -0.1314
     16  N         16.3610    7.4790    3.6940 N.am   42  TRP42      -0.1960
     17  CA        14.9890    7.6690    3.2490 C.3    42  TRP42       0.1771
     18  C         14.8100    9.1030    2.7470 C.2    42  TRP42       0.2620
     19  O         15.5470   10.0040    3.1350 O.2    42  TRP42      -0.2715
     20  CB        14.0140    7.3610    4.3810 C.3    42  TRP42       0.0590
     21  CG        14.2390    8.1740    5.5710 C.ar   42  TRP42       0.0006
     22  CD1       15.1290    7.9340    6.5470 C.ar   42  TRP42       0.0946
     23  CD2       13.5910    9.4020    5.9020 C.ar   42  TRP42       0.0152
     24  NE1       15.0890    8.9310    7.4900 N.ar   42  TRP42      -0.2442
     25  CE2       14.1550    9.8430    7.1140 C.ar   42  TRP42       0.0810
     26  CE3       12.5940   10.1580    5.2880 C.ar   42  TRP42       0.0012
     27  CZ2       13.7520   11.0450    7.7240 C.ar   42  TRP42       0.0191
     28  CZ3       12.1940   11.3500    5.8890 C.ar   42  TRP42       0.0001
     29  CH2       12.7760   11.7770    7.1040 C.ar   42  TRP42       0.0015
     30  N         13.8450    9.3080    1.8600 N.am   43  VAL43      -0.1963
     31  CA        13.5680   10.6260    1.2880 C.3    43  VAL43       0.1727
     32  C         12.0580   10.8100    1.1720 C.2    43  VAL43       0.2616
     33  O         11.3940   10.0850    0.4240 O.2    43  VAL43      -0.2715
     34  CB        14.2110   10.7780   -0.1220 C.3    43  VAL43       0.0290
     35  CG1       13.6570   12.0090   -0.8060 C.3    43  VAL43       0.0023
     36  CG2       15.7230   10.8870    0.0160 C.3    43  VAL43       0.0023
     37  N         11.5270   11.7830    1.9060 N.am   44  ASP44      -0.1971
     38  CA        10.0950   12.0590    1.8930 C.3    44  ASP44       0.1709
     39  C          9.6640   13.1520    0.8960 C.2    44  ASP44       0.2293
     40  O          9.4350   14.2950    1.2770 O.2    44  ASP44      -0.2864
     41  CB         9.6560   12.4420    3.3100 C.3    44  ASP44       0.1436
     42  CG         8.1400   12.5760    3.4520 C.2    44  ASP44       0.3671
     43  OD1        7.4550   12.7600    2.4310 O.co2  44  ASP44      -0.2456
     44  OD2        7.6360   12.5170    4.5940 O.co2  44  ASP44      -0.2456
     45  N         19.6190   10.3930   -5.8550 N.3   113  TYR113     -0.1227
     46  CA        19.5740   11.3340   -4.7440 C.3   113  TYR113      0.1736
     47  C         20.2370   10.8020   -3.4700 C.2   113  TYR113      0.2595
     48  O         21.0530   11.4940   -2.8570 O.2   113  TYR113     -0.2718
     49  CB        18.1210   11.7220   -4.4420 C.3   113  TYR113      0.0548
     50  CG        17.9780   12.9060   -3.5250 C.ar  113  TYR113     -0.0200
     51  CD1       18.1190   14.2010   -4.0060 C.ar  113  TYR113     -0.0009
     52  CD2       17.7310   12.7320   -2.1680 C.ar  113  TYR113     -0.0009
     53  CE1       18.0160   15.3080   -3.1500 C.ar  113  TYR113      0.0417
     54  CE2       17.6240   13.8270   -1.3070 C.ar  113  TYR113      0.0417
     55  CZ        17.7660   15.1070   -1.8070 C.ar  113  TYR113      0.1957
     56  OH        17.6230   16.1790   -0.9660 O.3   113  TYR113     -0.2866
     57  N         19.8800    9.5760   -3.0840 N.am  114  MET114     -0.1979
     58  CA        20.3950    8.9320   -1.8750 C.3   114  MET114      0.1605
     59  C         21.8460    8.4350   -1.8900 C.2   114  MET114      0.2287
     60  O         22.4810    8.3660   -0.8440 O.2   114  MET114     -0.2864
     61  CB        19.4620    7.7940   -1.4810 C.3   114  MET114      0.0413
     62  CG        18.1050    8.2830   -1.0160 C.3   114  MET114      0.0598
     63  SD        17.1370    6.9850   -0.2640 S.3   114  MET114     -0.1393
     64  CE        16.0950    6.4830   -1.6570 C.3   114  MET114      0.0692
     65  N         23.9840    9.9070   -4.0490 N.3   116  GLU116     -0.1245
     66  CA        24.6320   11.1510   -4.4650 C.3   116  GLU116      0.1567
     67  C         24.6320   12.1820   -3.3480 C.2   116  GLU116      0.2260
     68  O         25.3860   13.1470   -3.3940 O.2   116  GLU116     -0.2867
     69  CB        23.8980   11.7350   -5.6780 C.3   116  GLU116      0.0388
     70  CG        24.1850   13.2090   -6.0110 C.3   116  GLU116      0.1160
     71  CD        25.6070   13.4460   -6.5200 C.2   116  GLU116      0.3649
     72  OE1       26.5380   13.6070   -5.6930 O.co2 116  GLU116     -0.2457
     73  OE2       25.7900   13.4550   -7.7580 O.co2 116  GLU116     -0.2457
     74  N          5.3050    9.5250    9.8050 N.3   126  ARG126     -0.1245
     75  CA         6.0580   10.2720   10.7760 C.3   126  ARG126      0.1563
     76  C          5.1210   10.8100   11.8510 C.2   126  ARG126      0.2260
     77  O          3.8920   10.7440   11.7280 O.2   126  ARG126     -0.2867
     78  CB         6.8260   11.4170   10.1150 C.3   126  ARG126      0.0307
     79  CG         6.2580   11.9210    8.8110 C.3   126  ARG126      0.0489
     80  CD         6.7160   13.3670    8.5040 C.3   126  ARG126      0.2205
     81  NE         7.9460   13.4550    7.7250 N.pl3 126  ARG126     -0.0865
     82  CZ         9.0000   14.2010    8.0540 C.cat 126  ARG126      0.5346
     83  NH1        8.9730   14.9270    9.1670 N.pl3 126  ARG126      0.1354
     84  NH2       10.0800   14.2240    7.2650 N.pl3 126  ARG126      0.1354
     85  N         14.2290   11.8100   14.8940 N.3   145  PHE145     -0.1241
     86  CA        14.7550   13.0470   14.3130 C.3   145  PHE145      0.1605
     87  C         15.7870   13.8160   15.1480 C.2   145  PHE145      0.2264
     88  O         16.9080   14.0650   14.6880 O.2   145  PHE145     -0.2867
     89  CB        13.5810   13.9750   13.9780 C.3   145  PHE145      0.0534
     90  CG        12.6060   13.3770   13.0220 C.ar  145  PHE145     -0.0203
     91  CD1       11.2510   13.6580   13.1210 C.ar  145  PHE145     -0.0042
     92  CD2       13.0490   12.5410   11.9930 C.ar  145  PHE145     -0.0042
     93  CE1       10.3430   13.1070   12.2160 C.ar  145  PHE145     -0.0003
     94  CE2       12.1450   11.9870   11.0850 C.ar  145  PHE145     -0.0003
     95  CZ        10.8020   12.2780   11.1990 C.ar  145  PHE145     -0.0000
     96  N         19.1440   11.6460   16.0910 N.3   148  HIS148     -0.1241
     97  CA        19.5640   10.6820   15.0630 C.3   148  HIS148      0.1621
     98  C         19.7550    9.2420   15.5330 C.2   148  HIS148      0.2264
     99  O         20.3880    8.4410   14.8360 O.2   148  HIS148     -0.2867
    100  CB        20.8520   11.1580   14.3770 C.3   148  HIS148      0.0745
    101  CG        20.8060   12.5920   13.9620 C.ar  148  HIS148      0.0817
    102  ND1       19.9190   13.0630   13.0160 N.ar  148  HIS148     -0.2268
    103  CD2       21.4670   13.6800   14.4290 C.ar  148  HIS148      0.1154
    104  CE1       20.0310   14.3750   12.9250 C.ar  148  HIS148      0.1986
    105  NE2       20.9640   14.7760   13.7730 N.ar  148  HIS148     -0.2212
    106  N         18.4480    5.3890   16.3680 N.3   150  LYS150     -0.1245
    107  CA        17.5020    4.5330   15.6670 C.3   150  LYS150      0.1561
    108  C         17.2110    3.2450   16.4210 C.2   150  LYS150      0.2260
    109  O         18.0430    2.7430   17.1850 O.2   150  LYS150     -0.2867
    110  CB        18.0260    4.1600   14.2720 C.3   150  LYS150      0.0271
    111  CG        18.2960    5.3070   13.3740 C.3   150  LYS150      0.0035
    112  CD        18.9420    4.8430   12.0700 C.3   150  LYS150      0.0206
    113  CE        19.5530    6.0360   11.2760 C.3   150  LYS150      0.1093
    114  NZ        20.7830    6.5920   11.9360 N.3   150  LYS150     -0.1314
@<TRIPOS>BOND
     1    73    71   ar
     2    71    70    1
     3    71    72   ar
     4    70    69    1
     5    45    46    1
     6    69    66    1
     7    46    49    1
     8    46    47    1
     9    66    65    1
    10    66    67    1
    11    49    50    1
    12    51    50   ar
    13    51    53   ar
    14    50    52   ar
    15    47    57   am
    16    47    48    2
    17    68    67    2
    18    53    55   ar
    19    57    58    1
    20    52    54   ar
    21    59    58    1
    22    59    60    2
    23    58    61    1
    24    55    54   ar
    25    55    56    1
    26    64    63    1
    27    61    62    1
    28    62    63    1
    29    35    34    1
    30    34    36    1
    31    34    31    1
    32    33    32    2
    33    15    14    1
    34    39    40    2
    35    39    38    1
    36    32    31    1
    37    32    37   am
    38    31    30    1
    39    14    13    1
    40    30    18   am
    41    13    12    1
    42    38    37    1
    43    38    41    1
    44    43    42   ar
    45    18    19    2
    46    18    17    1
    47    11    12    1
    48    11     8    1
    49    10     9    2
    50    17    16    1
    51    17    20    1
    52    41    42    1
    53    42    44   ar
    54     9    16   am
    55     9     8    1
    56     8     7    1
    57     7     3   am
    58     5     6    1
    59     5     2    1
    60    20    21    1
    61     3     2    1
    62     3     4    2
    63     1     2    1
    64    26    28   ar
    65    26    23   ar
    66    21    23   ar
    67    21    22   ar
    68    28    29   ar
    69    23    25   ar
    70    22    24   ar
    71    29    27   ar
    72    25    24   ar
    73    25    27   ar
    74    84    82    1
    75    81    82    2
    76    81    80    1
    77    82    83    1
    78    80    79    1
    79    79    78    1
    80    74    75    1
    81    78    75    1
    82    75    76    1
    83    94    95   ar
    84    94    92   ar
    85    95    93   ar
    86   113   114    1
    87   113   112    1
    88    77    76    2
    89    92    90   ar
    90   112   111    1
    91    93    91   ar
    92   104   102   ar
    93   104   105   ar
    94   102   101   ar
    95    90    91   ar
    96    90    89    1
    97   111   110    1
    98   105   103   ar
    99   101   100    1
   100   101   103   ar
   101    89    86    1
   102   110   107    1
   103    86    85    1
   104    86    87    1
   105   100    97    1
   106    88    87    2
   107    99    98    2
   108    97    98    1
   109    97    96    1
   110   107   106    1
   111   107   108    1
   112   108   109    2
