@<TRIPOS>MOLECULE
tmp/2ok1A00.pdb
 145 135 0 0 0
SMALL
GASTEIGER

@<TRIPOS>ATOM
      1  N        -12.6120   16.0340   12.4870 N.3    23  LYS23      -0.1231
      2  CA       -13.0630   17.0460   13.4300 C.3    23  LYS23       0.1678
      3  C        -12.1810   17.0230   14.6770 C.2    23  LYS23       0.2434
      4  O        -11.4970   16.0350   14.9460 O.2    23  LYS23      -0.2733
      5  CB       -14.5400   16.8170   13.7930 C.3    23  LYS23       0.0284
      6  CG       -14.8850   15.4160   14.2600 C.3    23  LYS23       0.0035
      7  CD       -16.3880   15.1670   14.1740 C.3    23  LYS23       0.0206
      8  CE       -16.7610   13.7970   14.7210 C.3    23  LYS23       0.1093
      9  NZ       -18.2110   13.5090   14.5630 N.3    23  LYS23      -0.1314
     10  N        -12.1750   18.1230   15.4460 N.am   24  PRO24      -0.2718
     11  CA       -11.2620   18.3000   16.5770 C.3    24  PRO24       0.1535
     12  C        -11.6390   17.3940   17.7380 C.2    24  PRO24       0.2598
     13  O        -12.7820   16.9460   17.8270 O.2    24  PRO24      -0.2715
     14  CB       -11.4170   19.7800   16.9430 C.3    24  PRO24       0.0310
     15  CG       -12.3250   20.3720   15.8740 C.3    24  PRO24       0.0237
     16  CD       -13.1370   19.2300   15.3710 C.3    24  PRO24       0.0939
     17  N        -10.6780   17.1310   18.6190 N.am   25  ILE25      -0.1978
     18  CA       -10.9430   16.4020   19.8560 C.3    25  ILE25       0.1596
     19  C        -10.7000   17.2800   21.0800 C.2    25  ILE25       0.2287
     20  O        -11.3500   17.1690   22.1200 O.2    25  ILE25      -0.2864
     21  CB       -10.0470   15.1590   19.9820 C.3    25  ILE25       0.0276
     22  CG1      -10.3730   14.1670   18.8660 C.3    25  ILE25       0.0022
     23  CG2      -10.2470   14.5110   21.3380 C.3    25  ILE25       0.0022
     24  CD1       -9.6910   12.8310   19.0280 C.3    25  ILE25       0.0001
     25  N         -4.0000   16.1770   25.0610 N.3    26  GLY26      -0.1210
     26  CA        -2.7450   15.5300   24.7300 C.3    26  GLY26       0.1956
     27  C         -2.5410   15.4620   23.2320 C.2    26  GLY26       0.2611
     28  O         -3.3040   16.0590   22.4720 O.2    26  GLY26      -0.2717
     29  N         -1.5050   14.7470   22.8050 N.am   27  ALA27      -0.1979
     30  CA        -0.5480   14.1470   23.7290 C.3    27  ALA27       0.1597
     31  C          0.7860   14.8760   23.6090 C.2    27  ALA27       0.2287
     32  O          0.9610   15.9760   24.1350 O.2    27  ALA27      -0.2864
     33  CB        -0.3680   12.6660   23.4080 C.3    27  ALA27       0.0319
     34  N         -4.3230   16.3050   17.6660 N.3    31  VAL31      -0.1245
     35  CA        -5.1830   15.1500   17.4350 C.3    31  VAL31       0.1561
     36  C         -6.5780   15.4590   16.9090 C.2    31  VAL31       0.2260
     37  O         -7.2670   16.3570   17.3890 O.2    31  VAL31      -0.2867
     38  CB        -5.3540   14.3160   18.7180 C.3    31  VAL31       0.0252
     39  CG1       -6.1990   13.0850   18.4350 C.3    31  VAL31       0.0019
     40  CG2       -3.9960   13.8890   19.2390 C.3    31  VAL31       0.0019
     41  N        -10.3600   13.5130   15.4690 N.3    33  ALA33      -0.1245
     42  CA       -11.2250   12.3640   15.2280 C.3    33  ALA33       0.1562
     43  C        -11.5440   12.3210   13.7380 C.2    33  ALA33       0.2260
     44  O        -11.6420   13.3650   13.0910 O.2    33  ALA33      -0.2867
     45  CB       -12.5030   12.5020   16.0240 C.3    33  ALA33       0.0290
     46  N         -8.7730    7.9840   15.6840 N.3    44  ALA44      -0.1245
     47  CA        -8.0780    9.1970   16.0790 C.3    44  ALA44       0.1562
     48  C         -6.8200    9.3230   15.2330 C.2    44  ALA44       0.2260
     49  O         -6.1490    8.3340   14.9470 O.2    44  ALA44      -0.2867
     50  CB        -7.7170    9.1340   17.5460 C.3    44  ALA44       0.0290
     51  N         -3.2520   11.3730   15.3270 N.3    46  LYS46      -0.1245
     52  CA        -2.3440   12.2800   16.0220 C.3    46  LYS46       0.1561
     53  C         -1.2780   12.7540   15.0480 C.2    46  LYS46       0.2260
     54  O         -0.7380   11.9590   14.2720 O.2    46  LYS46      -0.2867
     55  CB        -1.6960   11.5570   17.2030 C.3    46  LYS46       0.0271
     56  CG        -0.7980   12.4100   18.0740 C.3    46  LYS46       0.0035
     57  CD        -0.5080   11.6790   19.3720 C.3    46  LYS46       0.0206
     58  CE         0.9590   11.7090   19.7420 C.3    46  LYS46       0.1093
     59  NZ         1.3030   10.5150   20.5640 N.3    46  LYS46      -0.1314
     60  N         -3.2260    1.0890   23.7900 N.3    77  ILE77      -0.1245
     61  CA        -3.6190    1.6320   22.4960 C.3    77  ILE77       0.1561
     62  C         -2.6710    1.0570   21.4460 C.2    77  ILE77       0.2260
     63  O         -1.4610    1.0010   21.6630 O.2    77  ILE77      -0.2867
     64  CB        -3.5460    3.1810   22.5000 C.3    77  ILE77       0.0252
     65  CG1       -4.4560    3.7560   21.4150 C.3    77  ILE77       0.0019
     66  CG2       -2.1300    3.6440   22.2170 C.3    77  ILE77       0.0019
     67  CD1       -5.9290    3.6130   21.7230 C.3    77  ILE77       0.0001
     68  N         -5.1330    5.7230   15.5970 N.3    99  MET99      -0.1230
     69  CA        -5.5450    4.7680   16.6130 C.3    99  MET99       0.1702
     70  C         -7.0550    4.6710   16.5560 C.2    99  MET99       0.2592
     71  O         -7.6950    5.4570   15.8590 O.2    99  MET99      -0.2718
     72  CB        -5.1000    5.2470   17.9960 C.3    99  MET99       0.0401
     73  CG        -3.5990    5.4570   18.1160 C.3    99  MET99       0.0596
     74  SD        -3.1710    6.8980   19.1080 S.3    99  MET99      -0.1393
     75  CE        -3.7640    8.2180   18.0650 C.3    99  MET99       0.0692
     76  N         -7.6230    3.7120   17.2740 N.am  100  GLU100     -0.1966
     77  CA        -9.0720    3.6040   17.3590 C.3   100  GLU100      0.1733
     78  C         -9.5890    4.7280   18.2450 C.2   100  GLU100      0.2616
     79  O         -8.9740    5.0620   19.2550 O.2   100  GLU100     -0.2715
     80  CB        -9.4690    2.2550   17.9510 C.3   100  GLU100      0.0429
     81  CG        -9.1170    2.1020   19.4150 C.3   100  GLU100      0.1163
     82  CD        -8.7790    0.6450   19.6670 C.2   100  GLU100      0.3649
     83  OE1       -8.9550   -0.1850   18.7470 O.co2 100  GLU100     -0.2457
     84  OE2       -8.3310    0.3340   20.7900 O.co2 100  GLU100     -0.2457
     85  N        -10.7210    5.3090   17.8640 N.am  101  LEU101     -0.1963
     86  CA       -11.2500    6.4740   18.5610 C.3   101  LEU101      0.1728
     87  C        -11.9010    6.0800   19.8770 C.2   101  LEU101      0.2616
     88  O        -12.7080    5.1560   19.9350 O.2   101  LEU101     -0.2715
     89  CB       -12.2770    7.1910   17.6840 C.3   101  LEU101      0.0311
     90  CG       -12.7460    8.5510   18.1940 C.3   101  LEU101      0.0022
     91  CD1      -11.6330    9.5660   18.0000 C.3   101  LEU101      0.0001
     92  CD2      -14.0180    8.9460   17.4640 C.3   101  LEU101      0.0001
     93  N        -11.5420    6.7950   20.9380 N.am  102  MET102     -0.1963
     94  CA       -12.1570    6.5980   22.2430 C.3   102  MET102      0.1736
     95  C        -13.0980    7.7670   22.5440 C.2   102  MET102      0.2616
     96  O        -13.1930    8.7020   21.7510 O.2   102  MET102     -0.2715
     97  CB       -11.0770    6.4930   23.3270 C.3   102  MET102      0.0427
     98  CG       -10.0370    5.4040   23.0770 C.3   102  MET102      0.0599
     99  SD       -10.7080    3.7270   22.9700 S.3   102  MET102     -0.1393
    100  CE       -10.8560    3.3090   24.7100 C.3   102  MET102      0.0692
    101  N        -13.7880    7.7150   23.6790 N.am  103  ASP103     -0.1957
    102  CA       -14.8380    8.6850   23.9730 C.3   103  ASP103      0.1840
    103  C        -14.4520    9.7320   25.0200 C.2   103  ASP103      0.2622
    104  O        -15.0630   10.7990   25.1000 O.2   103  ASP103     -0.2715
    105  CB       -16.1070    7.9480   24.4070 C.3   103  ASP103      0.1450
    106  CG       -16.6720    7.0810   23.3010 C.2   103  ASP103      0.3671
    107  OD1      -16.8800    7.6170   22.1920 O.co2 103  ASP103     -0.2456
    108  OD2      -16.9010    5.8750   23.5270 O.co2 103  ASP103     -0.2456
    109  N        -13.4370    9.4280   25.8190 N.am  104  ALA104     -0.1963
    110  CA       -12.9040   10.3920   26.7750 C.3   104  ALA104      0.1728
    111  C        -11.5040    9.9850   27.2180 C.2   104  ALA104      0.2616
    112  O        -11.0410    8.8890   26.9020 O.2   104  ALA104     -0.2715
    113  CB       -13.8220   10.4920   27.9840 C.3   104  ALA104      0.0334
    114  N        -10.8270   10.8680   27.9450 N.am  105  ASN105     -0.1972
    115  CA        -9.6170   10.4670   28.6490 C.3   105  ASN105      0.1688
    116  C         -9.9030   10.4370   30.1480 C.2   105  ASN105      0.2292
    117  O        -10.9830   10.8420   30.5800 O.2   105  ASN105     -0.2864
    118  CB        -8.4620   11.4230   28.3360 C.3   105  ASN105      0.1181
    119  CG        -8.4720   12.6560   29.2040 C.2   105  ASN105      0.2629
    120  OD1       -9.4570   13.3890   29.2490 O.2   105  ASN105     -0.2716
    121  ND2       -7.3680   12.8940   29.9040 N.am  105  ASN105     -0.0877
    122  N        -11.1070   13.3390   32.5250 N.3   108  GLN108     -0.1245
    123  CA       -12.5240   13.6400   32.3420 C.3   108  GLN108      0.1566
    124  C        -13.4000   12.6830   33.1360 C.2   108  GLN108      0.2260
    125  O        -14.4450   13.0710   33.6580 O.2   108  GLN108     -0.2867
    126  CB       -12.8950   13.5600   30.8580 C.3   108  GLN108      0.0367
    127  CG       -12.2100   14.6070   29.9950 C.3   108  GLN108      0.0905
    128  CD       -12.3980   14.3450   28.5110 C.2   108  GLN108      0.2608
    129  OE1      -12.2400   13.2180   28.0410 O.2   108  GLN108     -0.2717
    130  NE2      -12.7350   15.3920   27.7640 N.am  108  GLN108     -0.0878
    131  N         -7.0840    6.6990   28.1000 N.3   149  VAL149     -0.1245
    132  CA        -8.3550    7.0100   27.4610 C.3   149  VAL149      0.1561
    133  C         -9.3200    5.8430   27.6200 C.2   149  VAL149      0.2260
    134  O         -8.9030    4.6830   27.6140 O.2   149  VAL149     -0.2867
    135  CB        -8.1630    7.3000   25.9620 C.3   149  VAL149      0.0252
    136  CG1       -7.3090    8.5460   25.7800 C.3   149  VAL149      0.0019
    137  CG2       -7.4820    6.1200   25.2820 C.3   149  VAL149      0.0019
    138  N         -2.1040    5.0150   26.7520 N.3   159  LEU159     -0.1245
    139  CA        -1.7680    5.5930   25.4580 C.3   159  LEU159      0.1561
    140  C         -0.2890    5.5240   25.1060 C.2   159  LEU159      0.2260
    141  O          0.0640    5.5940   23.9260 O.2   159  LEU159     -0.2867
    142  CB        -2.2120    7.0510   25.4060 C.3   159  LEU159      0.0270
    143  CG        -3.7110    7.2920   25.2690 C.3   159  LEU159      0.0019
    144  CD1       -3.9930    8.7880   25.1840 C.3   159  LEU159      0.0001
    145  CD2       -4.1950    6.5300   24.0520 C.3   159  LEU159      0.0001
@<TRIPOS>BOND
     1     1     2    1
     2    44    43    2
     3     2     5    1
     4     2     3    1
     5    43    42    1
     6     5     6    1
     7     7     6    1
     8     7     8    1
     9    54    53    2
    10     9     8    1
    11     3     4    2
    12     3    10   am
    13    49    48    2
    14    53    52    1
    15    42    41    1
    16    42    45    1
    17    48    47    1
    18    51    52    1
    19    16    10    1
    20    16    15    1
    21    10    11    1
    22    68    69    1
    23    46    47    1
    24    71    70    2
    25    15    14    1
    26    52    55    1
    27    47    50    1
    28    70    69    1
    29    70    76   am
    30    11    14    1
    31    11    12    1
    32    69    72    1
    33    36    37    2
    34    36    35    1
    35    55    56    1
    36    76    77    1
    37    77    80    1
    38    77    78    1
    39    35    34    1
    40    35    38    1
    41    92    90    1
    42    89    90    1
    43    89    86    1
    44    12    13    2
    45    12    17   am
    46    85    78   am
    47    85    86    1
    48    80    81    1
    49    72    73    1
    50    91    90    1
    51    75    74    1
    52    56    57    1
    53    73    74    1
    54    78    79    2
    55    39    38    1
    56    86    87    1
    57    17    18    1
    58    38    40    1
    59    83    82   ar
    60    22    24    1
    61    22    21    1
    62    57    58    1
    63    81    82    1
    64    82    84   ar
    65    58    59    1
    66    18    21    1
    67    18    19    1
    68    87    88    2
    69    87    93   am
    70    21    23    1
    71    93    94    1
    72    19    20    2
    73    65    67    1
    74    65    64    1
    75    62    63    2
    76    62    61    1
    77    96    95    2
    78   107   106   ar
    79    66    64    1
    80    94    95    1
    81    94    97    1
    82    28    27    2
    83    61    64    1
    84    61    60    1
    85    95   101   am
    86    29    27   am
    87    29    30    1
    88    99    98    1
    89    99   100    1
    90    98    97    1
    91    27    26    1
    92   106   108   ar
    93   106   105    1
    94    33    30    1
    95    31    30    1
    96    31    32    2
    97   101   102    1
    98   141   140    2
    99   102   105    1
   100   102   103    1
   101   145   143    1
   102    26    25    1
   103   103   104    2
   104   103   109   am
   105   140   139    1
   106   144   143    1
   107   143   142    1
   108   137   135    1
   109   142   139    1
   110   139   138    1
   111   136   135    1
   112   109   110    1
   113   135   132    1
   114   110   111    1
   115   110   113    1
   116   112   111    2
   117   111   114   am
   118   132   133    1
   119   132   131    1
   120   134   133    2
   121   130   128   am
   122   114   115    1
   123   129   128    2
   124   118   115    1
   125   118   119    1
   126   128   127    1
   127   115   116    1
   128   119   120    2
   129   119   121   am
   130   127   126    1
   131   116   117    2
   132   126   123    1
   133   123   122    1
   134   123   124    1
   135   124   125    2
