@<TRIPOS>MOLECULE
tmp/2ok5A00.pdb
 96 89 0 0 0
SMALL
GASTEIGER

@<TRIPOS>ATOM
      1  N        -47.9990   25.0570   25.5130 N.3    12  LYS12      -0.1245
      2  CA       -47.3310   23.7640   25.4120 C.3    12  LYS12       0.1561
      3  C        -46.7360   23.5680   24.0100 C.2    12  LYS12       0.2260
      4  O        -47.4520   23.5690   23.0140 O.2    12  LYS12      -0.2867
      5  CB       -48.2830   22.6340   25.7830 C.3    12  LYS12       0.0271
      6  CG       -47.6540   21.2470   25.7770 C.3    12  LYS12       0.0035
      7  CD       -48.6980   20.1880   26.1240 C.3    12  LYS12       0.0206
      8  CE       -48.1160   18.8030   26.0230 C.3    12  LYS12       0.1093
      9  NZ       -49.0520   17.7920   26.5840 N.3    12  LYS12      -0.1314
     10  N        -52.0520   25.3500   23.6500 N.3    64  GLU64      -0.1245
     11  CA       -51.1920   24.3310   23.0230 C.3    64  GLU64       0.1567
     12  C        -50.8730   24.6520   21.5670 C.2    64  GLU64       0.2260
     13  O        -51.7180   25.1950   20.8430 O.2    64  GLU64      -0.2867
     14  CB       -51.8590   22.9590   23.0600 C.3    64  GLU64       0.0388
     15  CG       -52.0530   22.3710   24.4460 C.3    64  GLU64       0.1160
     16  CD       -52.5480   20.9250   24.4050 C.2    64  GLU64       0.3649
     17  OE1      -52.5520   20.3190   23.3050 O.co2  64  GLU64      -0.2457
     18  OE2      -52.9400   20.4080   25.4750 O.co2  64  GLU64      -0.2457
     19  N        -50.7140   23.0890   18.1830 N.3    66  ARG66      -0.1231
     20  CA       -51.3500   21.9340   17.5830 C.3    66  ARG66       0.1694
     21  C        -50.9580   21.8390   16.1380 C.2    66  ARG66       0.2591
     22  O        -50.6840   22.8550   15.5060 O.2    66  ARG66      -0.2718
     23  CB       -52.8640   22.0510   17.6660 C.3    66  ARG66       0.0321
     24  CG       -53.3930   21.8470   19.0510 C.3    66  ARG66       0.0489
     25  CD       -54.8550   21.6440   19.0220 C.3    66  ARG66       0.2205
     26  NE       -55.3340   21.2670   20.3410 N.pl3  66  ARG66      -0.0865
     27  CZ       -56.5870   20.9020   20.6020 C.cat  66  ARG66       0.5346
     28  NH1      -57.4940   20.8790   19.6270 N.pl3  66  ARG66       0.1354
     29  NH2      -56.9290   20.5740   21.8390 N.pl3  66  ARG66       0.1354
     30  N        -50.9520   20.6110   15.6250 N.am   67  ALA67      -0.1980
     31  CA       -50.6350   20.3540   14.2380 C.3    67  ALA67       0.1597
     32  C        -51.5590   21.1790   13.3260 C.2    67  ALA67       0.2287
     33  O        -52.7800   21.2280   13.5300 O.2    67  ALA67      -0.2864
     34  CB       -50.7470   18.8680   13.9450 C.3    67  ALA67       0.0319
     35  N        -53.7620   21.9270   10.1260 N.3    69  HIS69      -0.1241
     36  CA       -54.6070   21.1970    9.1870 C.3    69  HIS69       0.1621
     37  C        -54.9840   22.1110    8.0390 C.2    69  HIS69       0.2264
     38  O        -55.2080   23.3080    8.2360 O.2    69  HIS69      -0.2867
     39  CB       -55.8910   20.6980    9.8640 C.3    69  HIS69       0.0745
     40  CG       -55.6550   19.7110   10.9620 C.ar   69  HIS69       0.0817
     41  ND1      -56.5530   19.5120   11.9880 N.ar   69  HIS69      -0.2268
     42  CD2      -54.6220   18.8670   11.1960 C.ar   69  HIS69       0.1154
     43  CE1      -56.0840   18.5850   12.8050 C.ar   69  HIS69       0.1986
     44  NE2      -54.9080   18.1840   12.3520 N.ar   69  HIS69      -0.2212
     45  N        -61.5950   13.2630    3.9730 N.3    85  SER85      -0.1217
     46  CA       -61.3520   13.2540    5.4100 C.3    85  SER85       0.1889
     47  C        -61.9450   14.5000    6.0850 C.2    85  SER85       0.2288
     48  O        -62.1710   15.5150    5.4260 O.2    85  SER85      -0.2866
     49  CB       -59.8460   13.1990    5.6720 C.3    85  SER85       0.2089
     50  OG       -59.2460   12.1360    4.9460 O.3    85  SER85      -0.2183
     51  N        -60.4650   16.5570    7.9580 N.3    87  TYR87      -0.1241
     52  CA       -59.4070   17.5620    7.8560 C.3    87  TYR87       0.1605
     53  C        -58.1620   16.8230    7.3370 C.2    87  TYR87       0.2264
     54  O        -58.1220   15.5810    7.3200 O.2    87  TYR87      -0.2867
     55  CB       -59.1140   18.1720    9.2470 C.3    87  TYR87       0.0534
     56  CG       -58.6490   17.1290   10.2310 C.ar   87  TYR87      -0.0201
     57  CD1      -59.5080   16.6230   11.1980 C.ar   87  TYR87      -0.0009
     58  CD2      -57.3520   16.6140   10.1640 C.ar   87  TYR87      -0.0009
     59  CE1      -59.0780   15.6340   12.0910 C.ar   87  TYR87       0.0417
     60  CE2      -56.9120   15.6250   11.0390 C.ar   87  TYR87       0.0417
     61  CZ       -57.7750   15.1390   11.9950 C.ar   87  TYR87       0.1957
     62  OH       -57.3300   14.1680   12.8660 O.3    87  TYR87      -0.2866
     63  N        -53.7770   16.5590    7.4590 N.3    89  ASN89      -0.1240
     64  CA       -52.4730   16.8730    8.0260 C.3    89  ASN89       0.1653
     65  C        -51.4860   17.3940    6.9770 C.2    89  ASN89       0.2266
     66  O        -51.6180   17.1110    5.7790 O.2    89  ASN89      -0.2867
     67  CB       -51.8540   15.6320    8.6610 C.3    89  ASN89       0.1155
     68  CG       -52.5310   15.2180    9.9480 C.2    89  ASN89       0.2627
     69  OD1      -53.2060   16.0100   10.6180 O.2    89  ASN89      -0.2716
     70  ND2      -52.3390   13.9560   10.3060 N.am   89  ASN89      -0.0877
     71  N        -50.5640   15.6190    3.4270 N.3    92  ASP92      -0.1239
     72  CA       -51.6540   14.8300    2.8560 C.3    92  ASP92       0.1674
     73  C        -51.9600   15.3070    1.4290 C.2    92  ASP92       0.2266
     74  O        -51.8580   16.5130    1.1050 O.2    92  ASP92      -0.2867
     75  CB       -52.9130   14.8900    3.7290 C.3    92  ASP92       0.1410
     76  CG       -52.8280   13.9780    4.9520 C.2    92  ASP92       0.3668
     77  OD1      -51.8650   13.1860    5.0280 O.co2  92  ASP92      -0.2456
     78  OD2      -53.7200   14.0390    5.8380 O.co2  92  ASP92      -0.2456
     79  N        -45.1010    7.2900   14.3410 N.3   674  GLN674     -0.1231
     80  CA       -45.2010    7.3980   15.8140 C.3   674  GLN674      0.1698
     81  C        -44.4180    6.3020   16.5620 C.2   674  GLN674      0.2592
     82  O        -44.6240    5.1230   16.2930 O.2   674  GLN674     -0.2718
     83  CB       -46.6670    7.5410   16.2800 C.3   674  GLN674      0.0381
     84  CG       -47.3140    8.8470   15.7720 C.3   674  GLN674      0.0905
     85  CD       -48.8330    8.8630   15.8550 C.2   674  GLN674      0.2608
     86  OE1      -49.4060    9.1630   16.9050 O.2   674  GLN674     -0.2717
     87  NE2      -49.4920    8.5710   14.7350 N.am  674  GLN674     -0.0878
     88  N        -43.5090    6.6540   17.4830 N.am  675  LYS675     -0.1980
     89  CA       -43.2250    8.0150   18.0000 C.3   675  LYS675      0.1596
     90  C        -43.9580    8.2530   19.3320 C.2   675  LYS675      0.2287
     91  O        -45.1640    8.5510   19.3290 O.2   675  LYS675     -0.2864
     92  CB       -43.5300    9.1230   16.9740 C.3   675  LYS675      0.0298
     93  CG       -42.9860   10.5210   17.2860 C.3   675  LYS675      0.0038
     94  CD       -44.0400   11.4350   17.9140 C.3   675  LYS675      0.0206
     95  CE       -43.8630   11.5560   19.4260 C.3   675  LYS675      0.1093
     96  NZ       -45.0210   12.2390   20.0470 N.3   675  LYS675     -0.1314
@<TRIPOS>BOND
     1    74    73    2
     2    73    72    1
     3    72    71    1
     4    72    75    1
     5    75    76    1
     6    45    46    1
     7    50    49    1
     8    76    77   ar
     9    76    78   ar
    10    46    49    1
    11    46    47    1
    12    48    47    2
    13    66    65    2
    14    65    64    1
    15    54    53    2
    16    53    52    1
    17    63    64    1
    18    52    51    1
    19    52    55    1
    20    64    67    1
    21    37    38    2
    22    37    36    1
    23    67    68    1
    24    36    39    1
    25    36    35    1
    26    55    56    1
    27    39    40    1
    28    68    70   am
    29    68    69    2
    30    58    56   ar
    31    58    60   ar
    32    56    57   ar
    33    40    42   ar
    34    40    41   ar
    35    60    61   ar
    36    42    44   ar
    37    57    59   ar
    38    41    43   ar
    39    61    59   ar
    40    61    62    1
    41    44    43   ar
    42    32    33    2
    43    32    31    1
    44    34    31    1
    45    31    30    1
    46    79    80    1
    47    87    85   am
    48    22    21    2
    49    30    21   am
    50    84    85    1
    51    84    83    1
    52    80    83    1
    53    80    81    1
    54    85    86    2
    55    21    20    1
    56    82    81    2
    57    81    88   am
    58    92    93    1
    59    92    89    1
    60    93    94    1
    61    88    89    1
    62    20    23    1
    63    20    19    1
    64    23    24    1
    65    94    95    1
    66    89    90    1
    67    25    24    1
    68    25    26    1
    69    91    90    2
    70    95    96    1
    71    28    27    1
    72    26    27    2
    73    27    29    1
    74    13    12    2
    75    12    11    1
    76     4     3    2
    77    11    14    1
    78    11    10    1
    79    14    15    1
    80    17    16   ar
    81     3     2    1
    82    16    15    1
    83    16    18   ar
    84     2     1    1
    85     2     5    1
    86     6     5    1
    87     6     7    1
    88     8     7    1
    89     8     9    1
