@<TRIPOS>MOLECULE
tmp/2okeC01.pdb
 91 86 0 0 0
SMALL
GASTEIGER

@<TRIPOS>ATOM
      1  N        -11.0960  -38.6600  -17.9200 N.3    41  LEU41      -0.1245
      2  CA       -10.5480  -39.9930  -17.7240 C.3    41  LEU41       0.1561
      3  C         -9.3340  -40.1550  -18.6280 C.2    41  LEU41       0.2260
      4  O         -9.4260  -39.9920  -19.8460 O.2    41  LEU41      -0.2867
      5  CB       -11.6000  -41.0710  -18.0260 C.3    41  LEU41       0.0270
      6  CG       -11.2560  -42.5600  -17.8840 C.3    41  LEU41       0.0019
      7  CD1      -10.7580  -42.9020  -16.4790 C.3    41  LEU41       0.0001
      8  CD2      -12.4630  -43.4310  -18.2600 C.3    41  LEU41       0.0001
      9  N         -5.2220  -44.8640   -6.7380 N.3    58  ILE58      -0.1245
     10  CA        -4.7120  -43.8290   -7.6200 C.3    58  ILE58       0.1561
     11  C         -4.6510  -42.5450   -6.8060 C.2    58  ILE58       0.2260
     12  O         -5.6780  -41.9260   -6.5090 O.2    58  ILE58      -0.2867
     13  CB        -5.5560  -43.6660   -8.9050 C.3    58  ILE58       0.0252
     14  CG1       -5.5950  -44.9880   -9.6810 C.3    58  ILE58       0.0019
     15  CG2       -4.9910  -42.5450   -9.7740 C.3    58  ILE58       0.0019
     16  CD1       -6.3930  -44.9380  -10.9480 C.3    58  ILE58       0.0001
     17  N        -10.0600  -38.1780   -9.0730 N.3    72  GLY72      -0.1210
     18  CA       -11.3620  -38.7840   -8.8200 C.3    72  GLY72       0.1956
     19  C        -11.2760  -40.2980   -8.7620 C.2    72  GLY72       0.2612
     20  O        -10.2660  -40.8850   -9.1670 O.2    72  GLY72      -0.2717
     21  N        -12.3410  -40.9210   -8.2590 N.am   73  GLY73      -0.1942
     22  CA       -12.4040  -42.3690   -8.0720 C.3    73  GLY73       0.2014
     23  C        -11.1700  -42.9100   -7.3840 C.2    73  GLY73       0.2639
     24  O        -10.9500  -42.6620   -6.1960 O.2    73  GLY73      -0.2714
     25  N        -10.3640  -43.6540   -8.1390 N.am   74  GLY74      -0.1939
     26  CA        -9.0390  -44.0660   -7.6820 C.3    74  GLY74       0.2014
     27  C         -8.9510  -45.4330   -7.0310 C.2    74  GLY74       0.2639
     28  O         -7.9010  -45.8040   -6.5100 O.2    74  GLY74      -0.2714
     29  N        -10.0440  -46.1870   -7.0540 N.am   75  VAL75      -0.1963
     30  CA       -10.0370  -47.5180   -6.4500 C.3    75  VAL75       0.1727
     31  C         -9.8680  -48.5850   -7.5280 C.2    75  VAL75       0.2616
     32  O        -10.7710  -48.8110   -8.3380 O.2    75  VAL75      -0.2715
     33  CB       -11.2880  -47.7670   -5.5750 C.3    75  VAL75       0.0290
     34  CG1      -11.2260  -49.1310   -4.9340 C.3    75  VAL75       0.0023
     35  CG2      -11.3960  -46.6960   -4.5020 C.3    75  VAL75       0.0023
     36  N         -8.6870  -49.2080   -7.5370 N.am   76  ILE76      -0.1963
     37  CA        -8.3450  -50.2530   -8.5050 C.3    76  ILE76       0.1727
     38  C         -8.3460  -51.6120   -7.8130 C.2    76  ILE76       0.2616
     39  O         -7.3810  -51.9880   -7.1400 O.2    76  ILE76      -0.2715
     40  CB        -6.9770  -49.9950   -9.1990 C.3    76  ILE76       0.0290
     41  CG1       -6.8720  -48.5530   -9.7060 C.3    76  ILE76       0.0022
     42  CG2       -6.7450  -50.9960  -10.3370 C.3    76  ILE76       0.0023
     43  CD1       -7.8630  -48.1920  -10.8120 C.3    76  ILE76       0.0001
     44  N         -9.4510  -52.3300   -7.9980 N.am   77  ASP77      -0.1971
     45  CA        -9.7350  -53.5920   -7.3170 C.3    77  ASP77       0.1709
     46  C         -8.7510  -54.7040   -7.6490 C.2    77  ASP77       0.2293
     47  O         -8.1380  -54.7180   -8.7180 O.2    77  ASP77      -0.2864
     48  CB       -11.1540  -54.0670   -7.6550 C.3    77  ASP77       0.1436
     49  CG       -12.2210  -53.1100   -7.1750 C.2    77  ASP77       0.3671
     50  OD1      -12.4410  -53.0110   -5.9500 O.co2  77  ASP77      -0.2456
     51  OD2      -12.8530  -52.4630   -8.0290 O.co2  77  ASP77      -0.2456
     52  N         -9.6130  -56.6670  -10.8420 N.3    80  TYR80      -0.1241
     53  CA        -9.7590  -55.8500  -12.0370 C.3    80  TYR80       0.1605
     54  C         -8.7460  -56.2580  -13.1030 C.2    80  TYR80       0.2264
     55  O         -7.5430  -56.3150  -12.8360 O.2    80  TYR80      -0.2867
     56  CB        -9.5840  -54.3710  -11.6900 C.3    80  TYR80       0.0534
     57  CG        -9.8270  -53.4230  -12.8450 C.ar   80  TYR80      -0.0201
     58  CD1      -11.0650  -53.3900  -13.4950 C.ar   80  TYR80      -0.0009
     59  CD2       -8.8270  -52.5460  -13.2780 C.ar   80  TYR80      -0.0009
     60  CE1      -11.3040  -52.5190  -14.5530 C.ar   80  TYR80       0.0417
     61  CE2       -9.0560  -51.6590  -14.3360 C.ar   80  TYR80       0.0417
     62  CZ       -10.2990  -51.6550  -14.9700 C.ar   80  TYR80       0.1957
     63  OH       -10.5510  -50.7950  -16.0150 O.3    80  TYR80      -0.2866
     64  N         -8.2730  -51.9520  -18.5190 N.3    83  ASN83      -0.1225
     65  CA        -7.3900  -50.7910  -18.6280 C.3    83  ASN83       0.1785
     66  C         -7.4970  -49.9560  -17.3590 C.2    83  ASN83       0.2597
     67  O         -8.6030  -49.6640  -16.9120 O.2    83  ASN83      -0.2718
     68  CB        -7.8170  -49.9500  -19.8420 C.3    83  ASN83       0.1169
     69  CG        -6.7230  -49.0020  -20.3450 C.2    83  ASN83       0.2627
     70  OD1       -6.1880  -48.1710  -19.6010 O.2    83  ASN83      -0.2716
     71  ND2       -6.4160  -49.1050  -21.6340 N.am   83  ASN83      -0.0877
     72  N         -6.3650  -49.5890  -16.7620 N.am   84  ILE84      -0.1966
     73  CA        -6.3890  -48.6730  -15.6140 C.3    84  ILE84       0.1727
     74  C         -6.5600  -47.2330  -16.1110 C.2    84  ILE84       0.2616
     75  O         -5.7570  -46.7390  -16.9030 O.2    84  ILE84      -0.2715
     76  CB        -5.1360  -48.8130  -14.7050 C.3    84  ILE84       0.0290
     77  CG1       -4.9740  -50.2660  -14.2310 C.3    84  ILE84       0.0022
     78  CG2       -5.2250  -47.8650  -13.5110 C.3    84  ILE84       0.0023
     79  CD1       -3.8150  -50.4970  -13.2710 C.3    84  ILE84       0.0001
     80  N         -7.6290  -46.5790  -15.6630 N.am   85  GLY85      -0.1955
     81  CA        -7.8930  -45.1910  -16.0420 C.3    85  GLY85       0.1869
     82  C         -7.6630  -44.2470  -14.8820 C.2    85  GLY85       0.2309
     83  O         -7.8590  -44.6250  -13.7320 O.2    85  GLY85      -0.2863
     84  N         -8.7200  -40.4540  -13.3260 N.3    87  ILE87      -0.1245
     85  CA        -9.6270  -39.3150  -13.3990 C.3    87  ILE87       0.1561
     86  C         -8.9220  -38.0550  -12.8930 C.2    87  ILE87       0.2260
     87  O         -8.8460  -37.8080  -11.6880 O.2    87  ILE87      -0.2867
     88  CB       -10.9550  -39.5860  -12.6400 C.3    87  ILE87       0.0252
     89  CG1      -11.6700  -40.8020  -13.2430 C.3    87  ILE87       0.0019
     90  CG2      -11.8730  -38.3670  -12.6850 C.3    87  ILE87       0.0019
     91  CD1      -12.4770  -41.6260  -12.2420 C.3    87  ILE87       0.0001
@<TRIPOS>BOND
     1    71    69   am
     2    69    68    1
     3    69    70    2
     4     4     3    2
     5    68    65    1
     6     3     2    1
     7    65    64    1
     8    65    66    1
     9     8     6    1
    10     5     6    1
    11     5     2    1
    12     1     2    1
    13     6     7    1
    14    66    67    2
    15    66    72   am
    16    75    74    2
    17    72    73    1
    18    74    80   am
    19    74    73    1
    20    81    80    1
    21    81    82    1
    22    63    62    1
    23    73    76    1
    24    62    60   ar
    25    62    61   ar
    26    82    83    2
    27    76    77    1
    28    76    78    1
    29    60    58   ar
    30    61    59   ar
    31    77    79    1
    32    58    57   ar
    33    85    84    1
    34    85    86    1
    35    85    88    1
    36    59    57   ar
    37    89    88    1
    38    89    91    1
    39    54    55    2
    40    54    53    1
    41    86    87    2
    42    57    56    1
    43    90    88    1
    44    53    56    1
    45    53    52    1
    46    16    14    1
    47    43    41    1
    48    42    40    1
    49    15    13    1
    50    41    40    1
    51    14    13    1
    52    40    37    1
    53    20    19    2
    54    17    18    1
    55    13    10    1
    56    18    19    1
    57    19    21   am
    58    47    46    2
    59    37    38    1
    60    37    36    1
    61    32    31    2
    62    21    22    1
    63    25    26    1
    64    25    23   am
    65    22    23    1
    66    51    49   ar
    67    44    38   am
    68    44    45    1
    69    38    39    2
    70    26    27    1
    71    48    45    1
    72    48    49    1
    73    46    45    1
    74    10    11    1
    75    10     9    1
    76    36    31   am
    77    31    30    1
    78    23    24    2
    79    49    50   ar
    80    29    27   am
    81    29    30    1
    82    27    28    2
    83    11    12    2
    84    30    33    1
    85    33    34    1
    86    33    35    1
