@<TRIPOS>MOLECULE
tmp/2okjB01.pdb
 111 103 0 0 0
SMALL
GASTEIGER

@<TRIPOS>ATOM
      1  N         -4.8480   -0.9120  -22.7490 N.3    99  LEU99      -0.1245
      2  CA        -4.8370   -0.2540  -24.0510 C.3    99  LEU99       0.1561
      3  C         -5.3960    1.1670  -23.9860 C.2    99  LEU99       0.2260
      4  O         -5.0260    2.0220  -24.7890 O.2    99  LEU99      -0.2867
      5  CB        -5.6070   -1.0960  -25.0760 C.3    99  LEU99       0.0270
      6  CG        -4.8050   -2.0630  -25.9670 C.3    99  LEU99       0.0019
      7  CD1       -3.6990   -2.7950  -25.2240 C.3    99  LEU99       0.0001
      8  CD2       -5.7240   -3.0520  -26.6590 C.3    99  LEU99       0.0001
      9  N        -18.9920   -0.3730  -26.1580 N.3   159  GLY159     -0.1210
     10  CA       -17.7820   -1.1890  -26.2160 C.3   159  GLY159      0.1956
     11  C        -17.5850   -1.8430  -27.5650 C.2   159  GLY159      0.2612
     12  O        -18.5540   -2.1320  -28.2640 O.2   159  GLY159     -0.2717
     13  N        -16.3260   -2.0810  -27.9240 N.am  160  GLY160     -0.1942
     14  CA       -15.9700   -2.6680  -29.2200 C.3   160  GLY160      0.2014
     15  C        -16.3730   -4.1230  -29.3790 C.2   160  GLY160      0.2638
     16  O        -16.5130   -4.6220  -30.5000 O.2   160  GLY160     -0.2714
     17  N        -16.5510   -4.8050  -28.2510 N.am  161  ALA161     -0.1977
     18  CA       -17.0440   -6.1760  -28.2380 C.3   161  ALA161      0.1597
     19  C        -18.4530   -6.2130  -28.8050 C.2   161  ALA161      0.2287
     20  O        -18.8180   -7.1420  -29.5220 O.2   161  ALA161     -0.2864
     21  CB       -17.0210   -6.7390  -26.8230 C.3   161  ALA161      0.0319
     22  N        -18.3290   -5.3840  -32.5550 N.3   164  ASN164     -0.1240
     23  CA       -18.0630   -6.6460  -33.2550 C.3   164  ASN164      0.1653
     24  C        -19.3280   -7.5110  -33.4070 C.2   164  ASN164      0.2266
     25  O        -19.5860   -8.0630  -34.4840 O.2   164  ASN164     -0.2867
     26  CB       -16.9440   -7.4260  -32.5620 C.3   164  ASN164      0.1155
     27  CG       -15.5550   -6.8160  -32.7950 C.2   164  ASN164      0.2627
     28  OD1      -14.5900   -7.1940  -32.1330 O.2   164  ASN164     -0.2716
     29  ND2      -15.4530   -5.8810  -33.7330 N.am  164  ASN164     -0.0877
     30  N         -9.5270  -10.7780  -31.0640 N.3   199  HIS199     -0.1241
     31  CA       -10.1760  -10.5480  -29.7770 C.3   199  HIS199      0.1621
     32  C        -11.2940  -11.5620  -29.5260 C.2   199  HIS199      0.2264
     33  O        -12.0260  -11.9280  -30.4440 O.2   199  HIS199     -0.2867
     34  CB       -10.7110   -9.1150  -29.7080 C.3   199  HIS199      0.0745
     35  CG       -11.1260   -8.6880  -28.3350 C.ar  199  HIS199      0.0817
     36  ND1      -12.4390   -8.7070  -27.9140 N.ar  199  HIS199     -0.2268
     37  CD2      -10.4010   -8.2360  -27.2850 C.ar  199  HIS199      0.1154
     38  CE1      -12.5060   -8.2800  -26.6660 C.ar  199  HIS199      0.1986
     39  NE2      -11.2830   -7.9870  -26.2610 N.ar  199  HIS199     -0.2212
     40  N         -8.0990   -8.2860  -38.0850 N.3   252  THR252     -0.1218
     41  CA        -7.5210   -7.3690  -37.0920 C.3   252  THR252      0.1862
     42  C         -6.0960   -7.0300  -37.5620 C.2   252  THR252      0.2287
     43  O         -5.2800   -7.9340  -37.6040 O.2   252  THR252     -0.2866
     44  CB        -7.4120   -8.0860  -35.7040 C.3   252  THR252      0.1770
     45  OG1       -8.4600   -9.0520  -35.5530 O.3   252  THR252     -0.2211
     46  CG2       -7.4630   -7.1000  -34.5540 C.3   252  THR252      0.0375
     47  N         -4.7740   -4.5510  -35.7580 N.3   254  GLY254     -0.1225
     48  CA        -4.1790   -4.1580  -34.4880 C.3   254  GLY254      0.1811
     49  C         -4.6320   -5.0890  -33.3860 C.2   254  GLY254      0.2280
     50  O         -5.6090   -4.8080  -32.7020 O.2   254  GLY254     -0.2866
     51  N         -4.6820   -7.3110  -29.8420 N.3   256  THR256     -0.1218
     52  CA        -4.6170   -6.8430  -28.4540 C.3   256  THR256      0.1862
     53  C         -3.2420   -7.0850  -27.8200 C.2   256  THR256      0.2287
     54  O         -2.7610   -6.2660  -27.0390 O.2   256  THR256     -0.2866
     55  CB        -5.7490   -7.4860  -27.6010 C.3   256  THR256      0.1770
     56  OG1       -7.0130   -7.1940  -28.2040 O.3   256  THR256     -0.2211
     57  CG2       -5.7620   -6.9460  -26.1790 C.3   256  THR256      0.0375
     58  N        -11.7300   -5.3660  -37.4730 N.3   281  ASP281     -0.1239
     59  CA       -11.6870   -4.9730  -36.0730 C.3   281  ASP281      0.1674
     60  C        -10.5110   -4.0330  -35.8300 C.2   281  ASP281      0.2266
     61  O         -9.4110   -4.4690  -35.4900 O.2   281  ASP281     -0.2867
     62  CB       -11.5970   -6.2040  -35.1630 C.3   281  ASP281      0.1410
     63  CG       -11.7380   -5.8610  -33.6830 C.2   281  ASP281      0.3668
     64  OD1      -11.7640   -4.6630  -33.3310 O.co2 281  ASP281     -0.2456
     65  OD2      -11.8160   -6.7960  -32.8640 O.co2 281  ASP281     -0.2456
     66  N        -10.5810   -1.7080  -33.4560 N.3   283  ALA283     -0.1231
     67  CA       -10.7800   -1.1680  -32.1030 C.3   283  ALA283      0.1694
     68  C         -9.4970   -0.5480  -31.5370 C.2   283  ALA283      0.2592
     69  O         -9.5240    0.5530  -30.9910 O.2   283  ALA283     -0.2718
     70  CB       -11.3200   -2.2510  -31.1640 C.3   283  ALA283      0.0304
     71  N         -8.3790   -1.2550  -31.6980 N.am  284  TRP284     -0.1976
     72  CA        -7.0740   -0.8100  -31.2050 C.3   284  TRP284      0.1640
     73  C         -6.2620   -0.0840  -32.2920 C.2   284  TRP284      0.2290
     74  O         -5.6920    0.9790  -32.0400 O.2   284  TRP284     -0.2864
     75  CB        -6.3150   -2.0150  -30.6250 C.3   284  TRP284      0.0576
     76  CG        -4.8790   -1.7980  -30.1700 C.ar  284  TRP284      0.0006
     77  CD1       -3.8080   -2.5970  -30.4610 C.ar  284  TRP284      0.0946
     78  CD2       -4.3700   -0.7420  -29.3280 C.ar  284  TRP284      0.0152
     79  NE1       -2.6720   -2.1080  -29.8690 N.ar  284  TRP284     -0.2442
     80  CE2       -2.9840   -0.9730  -29.1660 C.ar  284  TRP284      0.0810
     81  CE3       -4.9490    0.3710  -28.6970 C.ar  284  TRP284      0.0012
     82  CZ2       -2.1650   -0.1280  -28.4040 C.ar  284  TRP284      0.0191
     83  CZ3       -4.1320    1.2090  -27.9340 C.ar  284  TRP284      0.0001
     84  CH2       -2.7560    0.9530  -27.7990 C.ar  284  TRP284      0.0015
     85  N        -12.4730    2.0420  -31.9120 N.3   310  ASN310     -0.1240
     86  CA       -12.6090    2.5590  -30.5470 C.3   310  ASN310      0.1653
     87  C        -11.7860    3.8330  -30.3160 C.2   310  ASN310      0.2266
     88  O        -10.5970    3.7560  -29.9960 O.2   310  ASN310     -0.2867
     89  CB       -12.1710    1.5110  -29.5080 C.3   310  ASN310      0.1155
     90  CG       -13.1510    0.3520  -29.3600 C.2   310  ASN310      0.2627
     91  OD1      -14.1000    0.2030  -30.1290 O.2   310  ASN310     -0.2716
     92  ND2      -12.9070   -0.4830  -28.3590 N.am  310  ASN310     -0.0877
     93  N        -11.9170    5.4540  -27.7410 N.3   312  HIS312     -0.1241
     94  CA       -11.5120    5.3880  -26.3320 C.3   312  HIS312      0.1621
     95  C        -10.1940    4.6400  -26.0800 C.2   312  HIS312      0.2264
     96  O         -9.6610    4.6630  -24.9670 O.2   312  HIS312     -0.2867
     97  CB       -12.6600    4.9090  -25.4100 C.3   312  HIS312      0.0745
     98  CG       -12.9380    3.4370  -25.4650 C.ar  312  HIS312      0.0817
     99  ND1      -12.0870    2.4950  -24.9290 N.ar  312  HIS312     -0.2268
    100  CD2      -14.0010    2.7500  -25.9470 C.ar  312  HIS312      0.1154
    101  CE1      -12.5990    1.2900  -25.1030 C.ar  312  HIS312      0.1986
    102  NE2      -13.7600    1.4170  -25.7190 N.ar  312  HIS312     -0.2212
    103  N        -16.9270    5.1850  -22.2740 N.3   319  GLN319     -0.1245
    104  CA       -16.6810    4.3460  -23.4420 C.3   319  GLN319      0.1566
    105  C        -16.9160    5.1810  -24.6900 C.2   319  GLN319      0.2260
    106  O        -17.7000    6.1290  -24.6650 O.2   319  GLN319     -0.2867
    107  CB       -17.6770    3.1870  -23.4820 C.3   319  GLN319      0.0367
    108  CG       -17.3660    2.0180  -22.5750 C.3   319  GLN319      0.0905
    109  CD       -18.4310    0.9360  -22.6440 C.2   319  GLN319      0.2608
    110  OE1      -19.6300    1.2200  -22.5820 O.2   319  GLN319     -0.2717
    111  NE2      -17.9980   -0.3140  -22.7650 N.am  319  GLN319     -0.0878
@<TRIPOS>BOND
     1    40    41    1
     2    43    42    2
     3    42    41    1
     4    58    59    1
     5    41    44    1
     6    59    60    1
     7    59    62    1
     8    60    61    2
     9    47    48    1
    10    44    45    1
    11    44    46    1
    12    62    63    1
    13    48    49    1
    14    25    24    2
    15    29    27   am
    16    63    64   ar
    17    63    65   ar
    18    66    67    1
    19    24    23    1
    20    49    50    2
    21    23    26    1
    22    23    22    1
    23    27    26    1
    24    27    28    2
    25    73    74    2
    26    73    72    1
    27    67    68    1
    28    67    70    1
    29    85    86    1
    30    71    68   am
    31    71    72    1
    32    68    69    2
    33    72    75    1
    34    30    31    1
    35    75    76    1
    36    86    87    1
    37    86    89    1
    38    16    15    2
    39    77    76   ar
    40    77    79   ar
    41    33    32    2
    42    87    88    2
    43    76    78   ar
    44    91    90    2
    45    79    80   ar
    46    51    52    1
    47    31    34    1
    48    31    32    1
    49    34    35    1
    50    20    19    2
    51    89    90    1
    52    15    14    1
    53    15    17   am
    54    90    92   am
    55    78    80   ar
    56    78    81   ar
    57    14    13    1
    58    80    82   ar
    59    19    18    1
    60    81    83   ar
    61    52    53    1
    62    52    55    1
    63    82    84   ar
    64    35    36   ar
    65    35    37   ar
    66    12    11    2
    67    17    18    1
    68    18    21    1
    69    56    55    1
    70    83    84   ar
    71    13    11   am
    72    36    38   ar
    73    53    54    2
    74    93    94    1
    75    55    57    1
    76    11    10    1
    77    37    39   ar
    78    38    39   ar
    79     8     6    1
    80    94    95    1
    81    94    97    1
    82    10     9    1
    83    95    96    2
    84     6     7    1
    85     6     5    1
    86   100   102   ar
    87   100    98   ar
    88   102   101   ar
    89    98    97    1
    90    98    99   ar
    91   101    99   ar
    92     5     2    1
    93     4     3    2
    94   105   106    2
    95   105   104    1
    96     2     3    1
    97     2     1    1
    98   107   104    1
    99   107   108    1
   100   104   103    1
   101   111   109   am
   102   109   110    2
   103   109   108    1
