@<TRIPOS>MOLECULE
tmp/2oklA00.pdb
 138 133 0 0 0
SMALL
GASTEIGER

@<TRIPOS>ATOM
      1  N         21.4380   10.4970 -225.3380 N.3    57  ARG57      -0.1231
      2  CA        21.5260    9.0970 -225.7080 C.3    57  ARG57       0.1679
      3  C         20.1500    8.5290 -225.3610 C.2    57  ARG57       0.2434
      4  O         19.6710    8.6840 -224.2380 O.2    57  ARG57      -0.2733
      5  CB        22.6210    8.3980 -224.8960 C.3    57  ARG57       0.0321
      6  CG        22.7850    6.9010 -225.1740 C.3    57  ARG57       0.0489
      7  CD        23.9430    6.3240 -224.3540 C.3    57  ARG57       0.2205
      8  NE        23.9240    4.8640 -224.2950 N.pl3  57  ARG57      -0.0865
      9  CZ        24.7230    4.1330 -223.5200 C.cat  57  ARG57       0.5346
     10  NH1       25.6150    4.7230 -222.7340 N.pl3  57  ARG57       0.1354
     11  NH2       24.6230    2.8090 -223.5200 N.pl3  57  ARG57       0.1354
     12  N         19.4820    7.8970 -226.3340 N.am   58  PRO58      -0.2718
     13  CA        18.1560    7.3160 -226.1070 C.3    58  PRO58       0.1535
     14  C         18.1940    6.2620 -225.0100 C.2    58  PRO58       0.2599
     15  O         19.1070    5.4400 -224.9630 O.2    58  PRO58      -0.2715
     16  CB        17.8060    6.7150 -227.4670 C.3    58  PRO58       0.0310
     17  CG        18.5360    7.6110 -228.4290 C.3    58  PRO58       0.0237
     18  CD        19.8700    7.7840 -227.7500 C.3    58  PRO58       0.0939
     19  N         17.1890    6.2950 -224.1390 N.am   59  GLY59      -0.1941
     20  CA        17.1010    5.3450 -223.0440 C.3    59  GLY59       0.2014
     21  C         15.6420    5.1480 -222.6720 C.2    59  GLY59       0.2639
     22  O         14.7880    5.9320 -223.0830 O.2    59  GLY59      -0.2714
     23  N         15.3470    4.1140 -221.8920 N.am   60  ILE60      -0.1963
     24  CA        13.9630    3.8500 -221.5130 C.3    60  ILE60       0.1727
     25  C         13.6880    3.9500 -220.0190 C.2    60  ILE60       0.2616
     26  O         12.6290    3.5420 -219.5500 O.2    60  ILE60      -0.2715
     27  CB        13.5170    2.4600 -222.0320 C.3    60  ILE60       0.0290
     28  CG1       14.4990    1.3860 -221.5720 C.3    60  ILE60       0.0022
     29  CG2       13.4400    2.4770 -223.5540 C.3    60  ILE60       0.0023
     30  CD1       14.1570   -0.0060 -222.0880 C.3    60  ILE60       0.0001
     31  N         14.6330    4.5170 -219.2760 N.am   61  GLY61      -0.1955
     32  CA        14.4580    4.6750 -217.8440 C.3    61  GLY61       0.1869
     33  C         15.6070    5.4600 -217.2410 C.2    61  GLY61       0.2309
     34  O         16.6640    5.5980 -217.8610 O.2    61  GLY61      -0.2863
     35  N         21.7000    8.5140 -210.7940 N.3    66  GLN66      -0.1245
     36  CA        22.3710    8.7050 -212.0710 C.3    66  GLN66       0.1566
     37  C         22.5890   10.1660 -212.4350 C.2    66  GLN66       0.2260
     38  O         23.4830   10.4810 -213.2220 O.2    66  GLN66      -0.2867
     39  CB        21.5970    8.0110 -213.1930 C.3    66  GLN66       0.0367
     40  CG        21.6920    6.5060 -213.1480 C.3    66  GLN66       0.0905
     41  CD        20.9820    5.8580 -214.3090 C.2    66  GLN66       0.2608
     42  OE1       19.7540    5.8300 -214.3640 O.2    66  GLN66      -0.2717
     43  NE2       21.7530    5.3420 -215.2560 N.am   66  GLN66      -0.0878
     44  N         17.1130  -10.3290 -221.3580 N.3   105  LEU105     -0.1245
     45  CA        17.2720   -9.9170 -222.7490 C.3   105  LEU105      0.1561
     46  C         18.4750  -10.7100 -223.2820 C.2   105  LEU105      0.2260
     47  O         19.5570  -10.7190 -222.6660 O.2   105  LEU105     -0.2867
     48  CB        17.5410   -8.4060 -222.8240 C.3   105  LEU105      0.0270
     49  CG        16.3330   -7.4680 -222.7130 C.3   105  LEU105      0.0019
     50  CD1       16.7410   -6.0870 -222.2110 C.3   105  LEU105      0.0001
     51  CD2       15.6880   -7.3620 -224.0870 C.3   105  LEU105      0.0001
     52  N         20.2680  -10.0340 -225.7400 N.3   107  GLY107     -0.1210
     53  CA        21.3000   -9.1110 -226.1730 C.3   107  GLY107      0.1956
     54  C         21.9120   -8.3440 -225.0120 C.2   107  GLY107      0.2612
     55  O         22.6980   -7.4140 -225.2160 O.2   107  GLY107     -0.2717
     56  N         21.5460   -8.7290 -223.7920 N.am  108  GLY108     -0.1942
     57  CA        22.0760   -8.0770 -222.6040 C.3   108  GLY108      0.2014
     58  C         21.4490   -6.7350 -222.2650 C.2   108  GLY108      0.2639
     59  O         20.3790   -6.3890 -222.7740 O.2   108  GLY108     -0.2714
     60  N         22.1220   -5.9790 -221.3990 N.am  109  GLU109     -0.1963
     61  CA        21.6460   -4.6630 -220.9860 C.3   109  GLU109      0.1733
     62  C         22.7450   -3.6100 -221.0750 C.2   109  GLU109      0.2617
     63  O         23.9310   -3.9180 -220.9620 O.2   109  GLU109     -0.2715
     64  CB        21.1220   -4.7080 -219.5450 C.3   109  GLU109      0.0429
     65  CG        19.7620   -5.3670 -219.3760 C.3   109  GLU109      0.1163
     66  CD        19.2820   -5.3660 -217.9280 C.2   109  GLU109      0.3649
     67  OE1       19.6170   -4.4250 -217.1780 O.co2 109  GLU109     -0.2457
     68  OE2       18.5520   -6.2960 -217.5430 O.co2 109  GLU109     -0.2457
     69  N         22.3290   -2.3670 -221.2880 N.am  110  GLY110     -0.1940
     70  CA        23.2510   -1.2480 -221.3550 C.3   110  GLY110      0.2014
     71  C         22.8140   -0.2700 -220.2790 C.2   110  GLY110      0.2639
     72  O         21.6940   -0.3780 -219.7790 O.2   110  GLY110     -0.2714
     73  N         23.6740    0.6750 -219.9160 N.am  111  CYS111     -0.1953
     74  CA        23.3450    1.6500 -218.8790 C.3   111  CYS111      0.1843
     75  C         23.9220    3.0090 -219.2480 C.2   111  CYS111      0.2625
     76  O         25.0540    3.1080 -219.7280 O.2   111  CYS111     -0.2714
     77  CB        23.9080    1.1850 -217.5240 C.3   111  CYS111      0.0997
     78  SG        23.5310    2.2220 -216.0710 S.3   111  CYS111     -0.0797
     79  N         23.1340    4.0580 -219.0370 N.am  112  LEU112     -0.1977
     80  CA        23.5780    5.4070 -219.3430 C.3   112  LEU112      0.1596
     81  C         24.7930    5.8110 -218.5140 C.2   112  LEU112      0.2287
     82  O         25.5590    6.6750 -218.9230 O.2   112  LEU112     -0.2864
     83  CB        22.4400    6.4020 -219.1050 C.3   112  LEU112      0.0297
     84  CG        21.6430    6.8600 -220.3310 C.3   112  LEU112      0.0022
     85  CD1       21.0920    5.6680 -221.0980 C.3   112  LEU112      0.0001
     86  CD2       20.5170    7.7760 -219.8720 C.3   112  LEU112      0.0001
     87  N          9.6860   -6.8660 -220.6060 N.3   147  LEU147     -0.1245
     88  CA        10.5660   -5.7000 -220.6730 C.3   147  LEU147      0.1561
     89  C         10.2910   -4.6460 -219.6050 C.2   147  LEU147      0.2260
     90  O         11.2230   -4.1170 -219.0060 O.2   147  LEU147     -0.2867
     91  CB        10.5180   -5.0540 -222.0660 C.3   147  LEU147      0.0270
     92  CG        11.5430   -3.9320 -222.2810 C.3   147  LEU147      0.0019
     93  CD1       12.9560   -4.4390 -221.9830 C.3   147  LEU147      0.0001
     94  CD2       11.4510   -3.4270 -223.7200 C.3   147  LEU147      0.0001
     95  N         11.7590   -5.6750 -216.4210 N.3   150  ILE150     -0.1231
     96  CA        13.2240   -5.6060 -216.4950 C.3   150  ILE150      0.1692
     97  C         13.6950   -4.1810 -216.2550 C.2   150  ILE150      0.2591
     98  O         14.6090   -3.9480 -215.4660 O.2   150  ILE150     -0.2718
     99  CB        13.7430   -6.1050 -217.8670 C.3   150  ILE150      0.0266
    100  CG1       13.5500   -7.6230 -217.9580 C.3   150  ILE150      0.0019
    101  CG2       15.2190   -5.7300 -218.0540 C.3   150  ILE150      0.0020
    102  CD1       13.9470   -8.2370 -219.3020 C.3   150  ILE150      0.0001
    103  N         13.0680   -3.2180 -216.9240 N.am  151  VAL151     -0.1980
    104  CA        13.4600   -1.8230 -216.7550 C.3   151  VAL151      0.1595
    105  C         13.2610   -1.3720 -215.3050 C.2   151  VAL151      0.2287
    106  O         14.1060   -0.6690 -214.7460 O.2   151  VAL151     -0.2864
    107  CB        12.6500   -0.8980 -217.7010 C.3   151  VAL151      0.0276
    108  CG1       13.0340    0.5730 -217.4700 C.3   151  VAL151      0.0022
    109  CG2       12.9030   -1.2980 -219.1450 C.3   151  VAL151      0.0022
    110  N         16.0890   -2.7170 -213.1740 N.3   154  HIS154     -0.1226
    111  CA        17.3290   -2.0080 -213.4650 C.3   154  HIS154      0.1752
    112  C         17.3450   -0.6590 -212.7420 C.2   154  HIS154      0.2595
    113  O         18.3380   -0.2990 -212.0970 O.2   154  HIS154     -0.2718
    114  CB        17.4570   -1.7970 -214.9820 C.3   154  HIS154      0.0759
    115  CG        18.6900   -1.0500 -215.3990 C.ar  154  HIS154      0.0818
    116  ND1       19.7310   -1.6540 -216.0740 N.ar  154  HIS154     -0.2268
    117  CD2       19.0350    0.2510 -215.2620 C.ar  154  HIS154      0.1154
    118  CE1       20.6640   -0.7540 -216.3330 C.ar  154  HIS154      0.1986
    119  NE2       20.2670    0.4100 -215.8510 N.ar  154  HIS154     -0.2212
    120  N         16.2410    0.0860 -212.8330 N.am  155  GLU155     -0.1979
    121  CA        16.1780    1.3990 -212.1960 C.3   155  GLU155      0.1602
    122  C         16.1640    1.3260 -210.6780 C.2   155  GLU155      0.2287
    123  O         16.8180    2.1260 -210.0120 O.2   155  GLU155     -0.2864
    124  CB        14.9560    2.1930 -212.6780 C.3   155  GLU155      0.0415
    125  CG        14.9160    2.4710 -214.1760 C.3   155  GLU155      0.1163
    126  CD        16.2540    2.9060 -214.7620 C.2   155  GLU155      0.3649
    127  OE1       17.1190    3.4350 -214.0240 O.co2 155  GLU155     -0.2457
    128  OE2       16.4280    2.7260 -215.9840 O.co2 155  GLU155     -0.2457
    129  N         19.5290    0.6620 -209.1710 N.3   158  HIS158     -0.1241
    130  CA        20.3130    1.8830 -209.0430 C.3   158  HIS158      0.1621
    131  C         20.1020    2.5470 -207.6900 C.2   158  HIS158      0.2264
    132  O         21.0240    3.1460 -207.1340 O.2   158  HIS158     -0.2867
    133  CB        19.9440    2.8770 -210.1430 C.3   158  HIS158      0.0745
    134  CG        20.7140    2.6950 -211.4120 C.ar  158  HIS158      0.0817
    135  ND1       22.0920    2.6890 -211.4530 N.ar  158  HIS158     -0.2268
    136  CD2       20.3000    2.5560 -212.6930 C.ar  158  HIS158      0.1154
    137  CE1       22.4940    2.5560 -212.7050 C.ar  158  HIS158      0.1986
    138  NE2       21.4260    2.4740 -213.4780 N.ar  158  HIS158     -0.2212
@<TRIPOS>BOND
     1    17    18    1
     2    17    16    1
     3    18    12    1
     4    16    13    1
     5    12    13    1
     6    12     3   am
     7    53    52    1
     8    53    54    1
     9    13    14    1
    10     2     3    1
    11     2     1    1
    12     2     5    1
    13     3     4    2
    14    55    54    2
    15     6     5    1
    16     6     7    1
    17    54    56   am
    18    14    15    2
    19    14    19   am
    20     7     8    1
    21     8     9    2
    22    19    20    1
    23    51    49    1
    24    56    57    1
    25    94    92    1
    26    29    27    1
    27    11     9    1
    28     9    10    1
    29    46    45    1
    30    46    47    2
    31    22    21    2
    32    20    21    1
    33    48    45    1
    34    48    49    1
    35    59    58    2
    36    45    44    1
    37    49    50    1
    38    21    23   am
    39    57    58    1
    40    92    91    1
    41    92    93    1
    42    58    60   am
    43    30    28    1
    44    91    88    1
    45    27    28    1
    46    27    24    1
    47    23    24    1
    48    24    25    1
    49    60    61    1
    50    70    69    1
    51    70    71    1
    52    69    62   am
    53    85    84    1
    54    62    61    1
    55    62    63    2
    56    61    64    1
    57    88    87    1
    58    88    89    1
    59    84    86    1
    60    84    83    1
    61    71    73   am
    62    71    72    2
    63    25    26    2
    64    25    31   am
    65    73    74    1
    66    76    75    2
    67    89    90    2
    68    64    65    1
    69    65    66    1
    70    80    83    1
    71    80    79    1
    72    80    81    1
    73   102   100    1
    74    31    32    1
    75    75    79   am
    76    75    74    1
    77   109   107    1
    78    82    81    2
    79    74    77    1
    80   101    99    1
    81   100    99    1
    82    66    68   ar
    83    66    67   ar
    84    99    96    1
    85    34    33    2
    86    32    33    1
    87   107   108    1
    88   107   104    1
    89    77    78    1
    90   103   104    1
    91   103    97   am
    92   104   105    1
    93    96    95    1
    94    96    97    1
    95   118   116   ar
    96   118   119   ar
    97    97    98    2
    98   116   115   ar
    99   128   126   ar
   100   119   117   ar
   101   115   117   ar
   102   115   114    1
   103   105   106    2
   104    43    41   am
   105   114   111    1
   106   126   125    1
   107   126   127   ar
   108    42    41    2
   109    41    40    1
   110   125   124    1
   111   138   137   ar
   112   138   136   ar
   113   111   110    1
   114   111   112    1
   115    38    37    2
   116    39    40    1
   117    39    36    1
   118   120   112   am
   119   120   121    1
   120   112   113    2
   121   137   135   ar
   122   136   134   ar
   123   124   121    1
   124    37    36    1
   125   121   122    1
   126    36    35    1
   127   135   134   ar
   128   134   133    1
   129   122   123    2
   130   133   130    1
   131   129   130    1
   132   130   131    1
   133   131   132    2
