@<TRIPOS>MOLECULE
tmp/2ol0B00.pdb
 91 86 0 0 0
SMALL
GASTEIGER

@<TRIPOS>ATOM
      1  N        -39.2390  -14.3640    4.3470 N.3    42  LEU42      -0.1245
      2  CA       -39.7270  -15.4320    5.2050 C.3    42  LEU42       0.1561
      3  C        -41.2400  -15.5000    5.0320 C.2    42  LEU42       0.2260
      4  O        -41.9350  -14.4900    5.2230 O.2    42  LEU42      -0.2867
      5  CB       -39.3800  -15.1460    6.6640 C.3    42  LEU42       0.0270
      6  CG       -39.7670  -16.1700    7.7350 C.3    42  LEU42       0.0019
      7  CD1      -38.9570  -17.4500    7.6210 C.3    42  LEU42       0.0001
      8  CD2      -39.5820  -15.5690    9.1080 C.3    42  LEU42       0.0001
      9  N        -37.0800  -27.8170    4.1260 N.3    59  ILE59      -0.1245
     10  CA       -37.7920  -26.9710    3.1760 C.3    59  ILE59       0.1561
     11  C        -37.0240  -27.0490    1.8590 C.2    59  ILE59       0.2260
     12  O        -35.9030  -26.5450    1.7480 O.2    59  ILE59      -0.2867
     13  CB       -37.9070  -25.4720    3.6310 C.3    59  ILE59       0.0252
     14  CG1      -38.3510  -25.3320    5.0980 C.3    59  ILE59       0.0019
     15  CG2      -38.8070  -24.6850    2.6710 C.3    59  ILE59       0.0019
     16  CD1      -39.7550  -25.7830    5.4100 C.3    59  ILE59       0.0001
     17  N        -34.0330  -20.4310    0.9460 N.3    73  GLY73      -0.1210
     18  CA       -33.0210  -20.1390    1.9640 C.3    73  GLY73       0.1956
     19  C        -33.2900  -20.8730    3.2660 C.2    73  GLY73       0.2612
     20  O        -34.3900  -21.4080    3.4810 O.2    73  GLY73      -0.2717
     21  N        -32.2910  -20.9080    4.1450 N.am   74  GLY74      -0.1942
     22  CA       -32.4250  -21.6310    5.4160 C.3    74  GLY74       0.2014
     23  C        -33.0000  -23.0110    5.1490 C.2    74  GLY74       0.2639
     24  O        -32.4930  -23.7540    4.3020 O.2    74  GLY74      -0.2714
     25  N        -34.0660  -23.3510    5.8610 N.am   75  GLY75      -0.1939
     26  CA       -34.8740  -24.5150    5.4960 C.3    75  GLY75       0.2014
     27  C        -34.6760  -25.7610    6.3290 C.2    75  GLY75       0.2639
     28  O        -35.1730  -26.8260    5.9720 O.2    75  GLY75      -0.2714
     29  N        -33.9570  -25.6240    7.4400 N.am   76  VAL76      -0.1963
     30  CA       -33.7800  -26.7200    8.3900 C.3    76  VAL76       0.1727
     31  C        -34.8180  -26.6210    9.5130 C.2    76  VAL76       0.2616
     32  O        -34.7610  -25.7150   10.3470 O.2    76  VAL76      -0.2715
     33  CB       -32.3390  -26.7460    8.9750 C.3    76  VAL76       0.0290
     34  CG1      -32.1830  -27.8780    9.9950 C.3    76  VAL76       0.0023
     35  CG2      -31.2990  -26.8770    7.8490 C.3    76  VAL76       0.0023
     36  N        -35.7760  -27.5510    9.5070 N.am   77  ILE77      -0.1963
     37  CA       -36.7670  -27.6420   10.5730 C.3    77  ILE77       0.1727
     38  C        -36.3550  -28.7550   11.5290 C.2    77  ILE77       0.2616
     39  O        -36.4900  -29.9400   11.2190 O.2    77  ILE77      -0.2715
     40  CB       -38.2190  -27.8960   10.0510 C.3    77  ILE77       0.0290
     41  CG1      -38.5450  -27.0220    8.8300 C.3    77  ILE77       0.0022
     42  CG2      -39.2350  -27.7220   11.1800 C.3    77  ILE77       0.0023
     43  CD1      -38.2280  -25.5470    8.9720 C.3    77  ILE77       0.0001
     44  N        -35.8400  -28.3540   12.6870 N.am   78  ASP78      -0.1971
     45  CA       -35.3480  -29.2970   13.6810 C.3    78  ASP78       0.1709
     46  C        -36.4720  -30.1690   14.2070 C.2    78  ASP78       0.2293
     47  O        -37.6490  -29.7960   14.1550 O.2    78  ASP78      -0.2864
     48  CB       -34.6610  -28.5650   14.8390 C.3    78  ASP78       0.1436
     49  CG       -33.4520  -27.7700   14.3880 C.2    78  ASP78       0.3671
     50  OD1      -32.3960  -28.3780   14.1050 O.co2  78  ASP78      -0.2456
     51  OD2      -33.5570  -26.5300   14.3290 O.co2  78  ASP78      -0.2456
     52  N        -38.4720  -28.4260   16.8800 N.3    81  TYR81      -0.1241
     53  CA       -39.1640  -27.1840   16.5390 C.3    81  TYR81       0.1605
     54  C        -40.6820  -27.3560   16.6210 C.2    81  TYR81       0.2264
     55  O        -41.2550  -28.2230   15.9620 O.2    81  TYR81      -0.2867
     56  CB       -38.7480  -26.6740   15.1570 C.3    81  TYR81       0.0534
     57  CG       -39.3200  -25.3140   14.8260 C.ar   81  TYR81      -0.0201
     58  CD1      -38.9940  -24.1940   15.5930 C.ar   81  TYR81      -0.0009
     59  CD2      -40.1970  -25.1470   13.7530 C.ar   81  TYR81      -0.0009
     60  CE1      -39.5130  -22.9400   15.2940 C.ar   81  TYR81       0.0417
     61  CE2      -40.7240  -23.8950   13.4480 C.ar   81  TYR81       0.0417
     62  CZ       -40.3740  -22.7950   14.2230 C.ar   81  TYR81       0.1957
     63  OH       -40.9010  -21.5490   13.9420 O.3    81  TYR81      -0.2866
     64  N        -44.1970  -21.9390   14.2630 N.3    84  ASN84      -0.1225
     65  CA       -44.6670  -21.6890   12.9080 C.3    84  ASN84       0.1785
     66  C        -43.5810  -22.0310   11.8910 C.2    84  ASN84       0.2597
     67  O        -42.4440  -21.5690   11.9970 O.2    84  ASN84      -0.2718
     68  CB       -45.0650  -20.2090   12.7870 C.3    84  ASN84       0.1169
     69  CG       -46.0850  -19.9440   11.6890 C.2    84  ASN84       0.2627
     70  OD1      -45.9970  -20.4790   10.5820 O.2    84  ASN84      -0.2716
     71  ND2      -47.0500  -19.0810   11.9910 N.am   84  ASN84      -0.0877
     72  N        -43.9250  -22.8650   10.9190 N.am   85  ILE85      -0.1966
     73  CA       -42.9760  -23.2370    9.8760 C.3    85  ILE85       0.1727
     74  C        -42.9190  -22.1360    8.8250 C.2    85  ILE85       0.2616
     75  O        -43.9270  -21.8100    8.2050 O.2    85  ILE85      -0.2715
     76  CB       -43.3030  -24.6240    9.2680 C.3    85  ILE85       0.0290
     77  CG1      -42.8260  -25.7250   10.2200 C.3    85  ILE85       0.0022
     78  CG2      -42.6430  -24.8060    7.9050 C.3    85  ILE85       0.0023
     79  CD1      -43.4910  -27.0640   10.0090 C.3    85  ILE85       0.0001
     80  N        -41.7280  -21.5610    8.6590 N.am   86  GLY86      -0.1955
     81  CA       -41.4900  -20.5040    7.6940 C.3    86  GLY86       0.1869
     82  C        -40.6360  -20.9630    6.5270 C.2    86  GLY86       0.2309
     83  O        -39.6230  -21.6410    6.7030 O.2    86  GLY86      -0.2863
     84  N        -38.3260  -19.6080    3.4770 N.3    88  ILE88      -0.1245
     85  CA       -37.6010  -18.4430    3.0000 C.3    88  ILE88       0.1561
     86  C        -37.4840  -18.5430    1.4840 C.2    88  ILE88       0.2260
     87  O        -36.6490  -19.2940    0.9720 O.2    88  ILE88      -0.2867
     88  CB       -36.2000  -18.2900    3.6770 C.3    88  ILE88       0.0252
     89  CG1      -36.3540  -18.1980    5.2020 C.3    88  ILE88       0.0019
     90  CG2      -35.4580  -17.0560    3.1120 C.3    88  ILE88       0.0019
     91  CD1      -35.0910  -18.4010    6.0030 C.3    88  ILE88       0.0001
@<TRIPOS>BOND
     1    17    18    1
     2    87    86    2
     3    86    85    1
     4    12    11    2
     5    11    10    1
     6    18    19    1
     7    15    13    1
     8    85    84    1
     9    85    88    1
    10    90    88    1
    11    10    13    1
    12    10     9    1
    13    19    20    2
    14    19    21   am
    15    13    14    1
    16    88    89    1
    17    21    22    1
    18    24    23    2
    19     1     2    1
    20     3     2    1
    21     3     4    2
    22    14    16    1
    23    23    22    1
    24    23    25   am
    25    89    91    1
    26     2     5    1
    27    26    25    1
    28    26    27    1
    29    28    27    2
    30    27    29   am
    31    82    83    2
    32    82    81    1
    33     5     6    1
    34    29    30    1
    35     7     6    1
    36    81    80    1
    37     6     8    1
    38    35    33    1
    39    78    76    1
    40    75    74    2
    41    30    33    1
    42    30    31    1
    43    80    74   am
    44    74    73    1
    45    41    43    1
    46    41    40    1
    47    33    34    1
    48    76    73    1
    49    76    77    1
    50    36    31   am
    51    36    37    1
    52    31    32    2
    53    73    72    1
    54    79    77    1
    55    40    37    1
    56    40    42    1
    57    37    38    1
    58    70    69    2
    59    72    66   am
    60    39    38    2
    61    38    44   am
    62    69    71   am
    63    69    68    1
    64    66    67    2
    65    66    65    1
    66    44    45    1
    67    68    65    1
    68    65    64    1
    69    61    59   ar
    70    61    62   ar
    71    45    46    1
    72    45    48    1
    73    59    57   ar
    74    63    62    1
    75    50    49   ar
    76    47    46    2
    77    62    60   ar
    78    51    49   ar
    79    49    48    1
    80    57    56    1
    81    57    58   ar
    82    56    53    1
    83    60    58   ar
    84    55    54    2
    85    53    54    1
    86    53    52    1
