@<TRIPOS>MOLECULE
tmp/2ol1A00.pdb
 98 94 0 0 0
SMALL
GASTEIGER

@<TRIPOS>ATOM
      1  N          9.9020   22.3950   -0.8080 N.3    42  LEU42      -0.1245
      2  CA        11.0800   22.8890   -1.5140 C.3    42  LEU42       0.1561
      3  C         11.1160   22.2840   -2.9170 C.2    42  LEU42       0.2260
      4  O         11.1650   21.0560   -3.0830 O.2    42  LEU42      -0.2867
      5  CB        12.3650   22.5610   -0.7380 C.3    42  LEU42       0.0270
      6  CG        13.6950   23.0860   -1.3000 C.3    42  LEU42       0.0019
      7  CD1       13.8260   24.5890   -1.1170 C.3    42  LEU42       0.0001
      8  CD2       14.8770   22.3640   -0.6550 C.3    42  LEU42       0.0001
      9  N         14.0310   35.1020   -4.7680 N.3    59  ILE59      -0.1245
     10  CA        12.9970   34.2260   -5.3050 C.3    59  ILE59       0.1561
     11  C         11.6670   34.9050   -5.0350 C.2    59  ILE59       0.2260
     12  O         11.2150   34.9550   -3.8910 O.2    59  ILE59      -0.2867
     13  CB        13.0140   32.8230   -4.6410 C.3    59  ILE59       0.0252
     14  CG1       14.4200   32.2110   -4.6820 C.3    59  ILE59       0.0019
     15  CG2       11.9520   31.9110   -5.2700 C.3    59  ILE59       0.0019
     16  CD1       14.9480   31.9180   -6.0680 C.3    59  ILE59       0.0001
     17  N          8.2530   31.0130    0.4130 N.3    73  GLY73      -0.1210
     18  CA         9.0120   30.9890    1.6610 C.3    73  GLY73       0.1956
     19  C         10.4880   31.2050    1.3880 C.2    73  GLY73       0.2612
     20  O         10.9530   30.9800    0.2630 O.2    73  GLY73      -0.2717
     21  N         11.2220   31.6310    2.4170 N.am   74  GLY74      -0.1942
     22  CA        12.6590   31.9150    2.2930 C.3    74  GLY74       0.2014
     23  C         12.9470   32.8670    1.1420 C.2    74  GLY74       0.2639
     24  O         12.4290   33.9830    1.1100 O.2    74  GLY74      -0.2714
     25  N         13.7730   32.4170    0.1980 N.am   75  GLY75      -0.1939
     26  CA        13.9290   33.1020   -1.0870 C.3    75  GLY75       0.2014
     27  C         15.1570   33.9760   -1.2820 C.2    75  GLY75       0.2639
     28  O         15.2700   34.6730   -2.2970 O.2    75  GLY75      -0.2714
     29  N         16.0760   33.9420   -0.3220 N.am   76  VAL76      -0.1963
     30  CA        17.3020   34.7360   -0.4070 C.3    76  VAL76       0.1727
     31  C         18.4440   33.8910   -0.9860 C.2    76  VAL76       0.2616
     32  O         18.9720   33.0010   -0.3140 O.2    76  VAL76      -0.2715
     33  CB        17.7050   35.3250    0.9780 C.3    76  VAL76       0.0290
     34  CG1       19.0340   36.0690    0.8960 C.3    76  VAL76       0.0023
     35  CG2       16.6190   36.2580    1.5130 C.3    76  VAL76       0.0023
     36  N         18.8100   34.1600   -2.2380 N.am   77  ILE77      -0.1963
     37  CA        19.9810   33.5180   -2.8320 C.3    77  ILE77       0.1727
     38  C         21.1820   34.4620   -2.7900 C.2    77  ILE77       0.2616
     39  O         21.2900   35.3830   -3.6000 O.2    77  ILE77      -0.2715
     40  CB        19.7510   33.0170   -4.2900 C.3    77  ILE77       0.0290
     41  CG1       18.3590   32.3800   -4.4720 C.3    77  ILE77       0.0022
     42  CG2       20.8840   32.0680   -4.7020 C.3    77  ILE77       0.0023
     43  CD1       18.0710   31.1510   -3.6080 C.3    77  ILE77       0.0001
     44  N         22.0800   34.2160   -1.8400 N.am   78  ASP78      -0.1971
     45  CA        23.2710   35.0470   -1.6530 C.3    78  ASP78       0.1709
     46  C         24.3170   34.8100   -2.7460 C.2    78  ASP78       0.2293
     47  O         24.3200   33.7600   -3.3980 O.2    78  ASP78      -0.2864
     48  CB        23.8860   34.7970   -0.2730 C.3    78  ASP78       0.1436
     49  CG        24.2100   33.3370   -0.0340 C.2    78  ASP78       0.3671
     50  OD1       23.2630   32.5350    0.1020 O.co2  78  ASP78      -0.2456
     51  OD2       25.4090   32.9890    0.0130 O.co2  78  ASP78      -0.2456
     52  N         26.3650   31.4900   -2.7620 N.3    81  TYR81      -0.1241
     53  CA        25.6930   30.2000   -2.9690 C.3    81  TYR81       0.1605
     54  C         26.0070   29.5620   -4.3190 C.2    81  TYR81       0.2264
     55  O         25.8250   30.1800   -5.3720 O.2    81  TYR81      -0.2867
     56  CB        24.1820   30.3430   -2.8070 C.3    81  TYR81       0.0534
     57  CG        23.4240   29.0280   -2.7890 C.ar   81  TYR81      -0.0201
     58  CD1       23.6980   28.0510   -1.8270 C.ar   81  TYR81      -0.0009
     59  CD2       22.4100   28.7770   -3.7150 C.ar   81  TYR81      -0.0009
     60  CE1       22.9900   26.8510   -1.7990 C.ar   81  TYR81       0.0417
     61  CE2       21.6930   27.5750   -3.6940 C.ar   81  TYR81       0.0417
     62  CZ        21.9880   26.6240   -2.7320 C.ar   81  TYR81       0.1957
     63  OH        21.2840   25.4410   -2.7020 O.3    81  TYR81      -0.2866
     64  N         22.1070   24.0170   -5.5410 N.3    84  ASN84      -0.1225
     65  CA        20.8510   23.9280   -6.2770 C.3    84  ASN84       0.1785
     66  C         19.8610   24.9730   -5.7550 C.2    84  ASN84       0.2597
     67  O         19.5110   24.9720   -4.5720 O.2    84  ASN84      -0.2718
     68  CB        20.2920   22.5030   -6.1130 C.3    84  ASN84       0.1169
     69  CG        19.2340   22.1390   -7.1500 C.2    84  ASN84       0.2627
     70  OD1       18.3750   22.9470   -7.5130 O.2    84  ASN84      -0.2716
     71  ND2       19.2780   20.8880   -7.6060 N.am   84  ASN84      -0.0877
     72  N         19.4340   25.8840   -6.6270 N.am   85  ILE85      -0.1966
     73  CA        18.4590   26.9080   -6.2320 C.3    85  ILE85       0.1727
     74  C         17.0940   26.2500   -6.0240 C.2    85  ILE85       0.2617
     75  O         16.5410   25.6530   -6.9460 O.2    85  ILE85      -0.2715
     76  CB        18.3750   28.0660   -7.2580 C.3    85  ILE85       0.0290
     77  CG1       19.6970   28.8410   -7.2840 C.3    85  ILE85       0.0022
     78  CG2       17.2160   29.0210   -6.9220 C.3    85  ILE85       0.0023
     79  CD1       19.8150   29.8430   -8.4250 C.3    85  ILE85       0.0001
     80  N         16.5920   26.3340   -4.7950 N.am   86  GLY86      -0.1940
     81  CA        15.3010   25.7540   -4.4320 C.3    86  GLY86       0.2014
     82  C         14.2530   26.8140   -4.1520 C.2    86  GLY86       0.2639
     83  O         14.5310   27.8220   -3.4900 O.2    86  GLY86      -0.2714
     84  N         13.0440   26.5910   -4.6640 N.am   87  VAL87      -0.1963
     85  CA        11.9200   27.5000   -4.4430 C.3    87  VAL87       0.1727
     86  C         10.9730   26.8990   -3.4050 C.2    87  VAL87       0.2616
     87  O         10.4070   25.8230   -3.6220 O.2    87  VAL87      -0.2715
     88  CB        11.1420   27.7780   -5.7570 C.3    87  VAL87       0.0290
     89  CG1        9.9210   28.6650   -5.4950 C.3    87  VAL87       0.0023
     90  CG2       12.0480   28.4170   -6.8010 C.3    87  VAL87       0.0023
     91  N         10.8170   27.5810   -2.2730 N.am   88  ILE88      -0.1977
     92  CA         9.8700   27.1410   -1.2520 C.3    88  ILE88       0.1596
     93  C          8.4660   27.6450   -1.6010 C.2    88  ILE88       0.2287
     94  O          8.1330   28.8180   -1.3840 O.2    88  ILE88      -0.2864
     95  CB        10.2820   27.5620    0.1820 C.3    88  ILE88       0.0276
     96  CG1       11.6820   27.0370    0.5160 C.3    88  ILE88       0.0022
     97  CG2        9.2730   27.0310    1.2070 C.3    88  ILE88       0.0022
     98  CD1       12.3560   27.7390    1.6950 C.3    88  ILE88       0.0001
@<TRIPOS>BOND
     1    79    77    1
     2    71    69   am
     3    70    69    2
     4    77    76    1
     5    76    78    1
     6    76    73    1
     7    69    68    1
     8    75    74    2
     9    90    88    1
    10    72    73    1
    11    72    66   am
    12    65    68    1
    13    65    66    1
    14    65    64    1
    15    73    74    1
    16    16    14    1
    17    74    80   am
    18    88    89    1
    19    88    85    1
    20    66    67    2
    21    55    54    2
    22    10    11    1
    23    10     9    1
    24    10    13    1
    25    15    13    1
    26    11    12    2
    27    80    81    1
    28    42    40    1
    29    14    13    1
    30    84    85    1
    31    84    82   am
    32    41    40    1
    33    41    43    1
    34    85    86    1
    35    81    82    1
    36    54    53    1
    37    40    37    1
    38    82    83    2
    39    59    61   ar
    40    59    57   ar
    41    61    62   ar
    42    87    86    2
    43    39    38    2
    44    86    91   am
    45    47    46    2
    46     4     3    2
    47    53    56    1
    48    53    52    1
    49     3     2    1
    50    37    38    1
    51    37    36    1
    52    56    57    1
    53    38    44   am
    54    57    58   ar
    55    46    45    1
    56    62    63    1
    57    62    60   ar
    58    28    27    2
    59    91    92    1
    60    36    31   am
    61    44    45    1
    62    58    60   ar
    63    45    48    1
    64    93    94    2
    65    93    92    1
    66     2     1    1
    67     2     5    1
    68     6     7    1
    69     6     5    1
    70     6     8    1
    71    27    26    1
    72    27    29   am
    73    92    95    1
    74    26    25    1
    75    31    30    1
    76    31    32    2
    77    30    29    1
    78    30    33    1
    79    48    49    1
    80    49    51   ar
    81    49    50   ar
    82    95    96    1
    83    95    97    1
    84    25    23   am
    85    20    19    2
    86    17    18    1
    87    96    98    1
    88    34    33    1
    89    33    35    1
    90    24    23    2
    91    23    22    1
    92    19    18    1
    93    19    21   am
    94    22    21    1
