@<TRIPOS>MOLECULE
tmp/2ol4B01.pdb
 189 183 0 0 0
SMALL
GASTEIGER

@<TRIPOS>ATOM
      1  N         14.7190  104.1140   35.3100 N.3   113  SER113     -0.1202
      2  CA        14.1290  102.8850   34.8150 C.3   113  SER113      0.2020
      3  C         12.9300  103.1980   33.9390 C.2   113  SER113      0.2619
      4  O         11.8540  102.6240   34.0990 O.2   113  SER113     -0.2717
      5  CB        13.7090  101.9960   35.9860 C.3   113  SER113      0.2103
      6  OG        13.4450  100.6800   35.5380 O.3   113  SER113     -0.2182
      7  N         13.1210  104.1170   33.0040 N.am  114  LEU114     -0.1965
      8  CA        12.0220  104.5440   32.1620 C.3   114  LEU114      0.1728
      9  C         12.4830  104.8600   30.7460 C.2   114  LEU114      0.2616
     10  O         13.6710  105.0500   30.4750 O.2   114  LEU114     -0.2715
     11  CB        11.3310  105.7560   32.7760 C.3   114  LEU114      0.0311
     12  CG        12.1980  107.0080   32.8580 C.3   114  LEU114      0.0022
     13  CD1       11.9130  107.9190   31.6830 C.3   114  LEU114      0.0001
     14  CD2       11.9020  107.7270   34.1630 C.3   114  LEU114      0.0001
     15  N         11.5150  104.9140   29.8490 N.am  115  ALA115     -0.1963
     16  CA        11.7670  105.1350   28.4420 C.3   115  ALA115      0.1728
     17  C         10.4070  105.3870   27.8260 C.2   115  ALA115      0.2616
     18  O          9.3850  104.9240   28.3380 O.2   115  ALA115     -0.2715
     19  CB        12.4210  103.9100   27.8160 C.3   115  ALA115      0.0334
     20  N         10.3860  106.1410   26.7410 N.am  116  ASN116     -0.1958
     21  CA         9.1380  106.4110   26.0680 C.3   116  ASN116      0.1819
     22  C          9.4270  107.0000   24.7200 C.2   116  ASN116      0.2621
     23  O         10.3830  107.7550   24.5570 O.2   116  ASN116     -0.2715
     24  CB         8.2730  107.3660   26.8830 C.3   116  ASN116      0.1195
     25  CG         6.8360  106.8920   26.9850 C.2   116  ASN116      0.2630
     26  OD1        6.3750  106.0850   26.1710 O.2   116  ASN116     -0.2716
     27  ND2        6.1240  107.3800   27.9920 N.am  116  ASN116     -0.0877
     28  N          8.6070  106.6290   23.7500 N.am  117  ALA117     -0.1977
     29  CA         8.7460  107.1220   22.3930 C.3   117  ALA117      0.1597
     30  C          7.3860  107.0010   21.7290 C.2   117  ALA117      0.2287
     31  O          6.8370  105.9130   21.6230 O.2   117  ALA117     -0.2864
     32  CB         9.8040  106.3120   21.6330 C.3   117  ALA117      0.0319
     33  N          7.4200  104.5480   18.4940 N.3   120  VAL120     -0.1245
     34  CA         8.2170  103.3340   18.5970 C.3   120  VAL120      0.1561
     35  C          7.8170  102.3040   17.5360 C.2   120  VAL120      0.2260
     36  O          8.6310  101.4780   17.1100 O.2   120  VAL120     -0.2867
     37  CB         8.1200  102.7250   20.0190 C.3   120  VAL120      0.0252
     38  CG1        6.6840  102.3490   20.3470 C.3   120  VAL120      0.0019
     39  CG2        9.0350  101.5310   20.1530 C.3   120  VAL120      0.0019
     40  N         19.3360  100.0370   29.5780 N.3   164  THR164     -0.1203
     41  CA        19.4540  100.2310   28.1470 C.3   164  THR164      0.1994
     42  C         19.2230   98.9110   27.4250 C.2   164  THR164      0.2617
     43  O         18.9130   97.9010   28.0560 O.2   164  THR164     -0.2717
     44  CB        20.8190  100.8570   27.7690 C.3   164  THR164      0.1784
     45  OG1       20.8240  101.1680   26.3740 O.3   164  THR164     -0.2211
     46  CG2       21.9780   99.8980   28.0990 C.3   164  THR164      0.0376
     47  N         19.3600   98.9310   26.1070 N.am  165  TYR165     -0.1975
     48  CA        19.1120   97.7530   25.2900 C.3   165  TYR165      0.1639
     49  C         20.0990   97.7140   24.1150 C.2   165  TYR165      0.2290
     50  O         20.4720   98.7570   23.5630 O.2   165  TYR165     -0.2864
     51  CB        17.6460   97.7170   24.8170 C.3   165  TYR165      0.0560
     52  CG        17.3030   96.4960   23.9910 C.ar  165  TYR165     -0.0198
     53  CD1       17.4650   95.2170   24.5050 C.ar  165  TYR165     -0.0009
     54  CD2       16.8340   96.6260   22.6940 C.ar  165  TYR165     -0.0009
     55  CE1       17.1720   94.0950   23.7460 C.ar  165  TYR165      0.0417
     56  CE2       16.5250   95.5170   21.9260 C.ar  165  TYR165      0.0417
     57  CZ        16.6930   94.2550   22.4570 C.ar  165  TYR165      0.1957
     58  OH        16.3930   93.1580   21.6820 O.3   165  TYR165     -0.2866
     59  N         18.3160   95.9480   15.5870 N.3   172  VAL172     -0.1231
     60  CA        17.1600   95.1560   15.9680 C.3   172  VAL172      0.1678
     61  C         15.9710   95.8090   15.2710 C.2   172  VAL172      0.2434
     62  O         15.4260   96.7950   15.7570 O.2   172  VAL172     -0.2733
     63  CB        16.9470   95.1430   17.5000 C.3   172  VAL172      0.0265
     64  CG1       15.5610   94.5870   17.8600 C.3   172  VAL172      0.0020
     65  CG2       18.0450   94.3390   18.1900 C.3   172  VAL172      0.0020
     66  N         15.6000   95.2910   14.0920 N.am  173  PRO173     -0.2718
     67  CA        14.4660   95.8720   13.3650 C.3   173  PRO173      0.1535
     68  C         13.2070   95.7440   14.2130 C.2   173  PRO173      0.2599
     69  O         13.0010   94.7150   14.8590 O.2   173  PRO173     -0.2715
     70  CB        14.3660   95.0010   12.1040 C.3   173  PRO173      0.0310
     71  CG        15.7010   94.3170   11.9830 C.3   173  PRO173      0.0237
     72  CD        16.1790   94.1310   13.3930 C.3   173  PRO173      0.0939
     73  N         12.3850   96.7860   14.2360 N.am  174  GLY174     -0.1941
     74  CA        11.2030   96.7760   15.0820 C.3   174  GLY174      0.2014
     75  C         11.3690   97.5950   16.3490 C.2   174  GLY174      0.2638
     76  O         10.3850   98.0150   16.9490 O.2   174  GLY174     -0.2714
     77  N         12.6140   97.8130   16.7660 N.am  175  TYR175     -0.1973
     78  CA        12.9020   98.7100   17.8870 C.3   175  TYR175      0.1639
     79  C         12.9590  100.1240   17.3220 C.2   175  TYR175      0.2290
     80  O         14.0400  100.6710   17.1050 O.2   175  TYR175     -0.2864
     81  CB        14.2420   98.3340   18.5320 C.3   175  TYR175      0.0560
     82  CG        14.4630   98.8900   19.9240 C.ar  175  TYR175     -0.0198
     83  CD1       13.7660   98.3790   21.0210 C.ar  175  TYR175     -0.0009
     84  CD2       15.3770   99.9150   20.1500 C.ar  175  TYR175     -0.0009
     85  CE1       13.9690   98.8780   22.2960 C.ar  175  TYR175      0.0417
     86  CE2       15.5960  100.4150   21.4390 C.ar  175  TYR175      0.0417
     87  CZ        14.8880   99.8950   22.4960 C.ar  175  TYR175      0.1957
     88  OH        15.0950  100.3890   23.7580 O.3   175  TYR175     -0.2866
     89  N         14.1110  104.8860   19.4610 N.3   179  MET179     -0.1245
     90  CA        14.4740  104.2320   20.7110 C.3   179  MET179      0.1570
     91  C         15.8950  103.6910   20.6430 C.2   179  MET179      0.2261
     92  O         16.6340  103.7520   21.6320 O.2   179  MET179     -0.2867
     93  CB        13.4900  103.1200   21.0920 C.3   179  MET179      0.0387
     94  CG        12.2970  103.6020   21.9310 C.3   179  MET179      0.0595
     95  SD        12.7750  104.6530   23.3320 S.3   179  MET179     -0.1393
     96  CE        13.8530  103.5330   24.2250 C.3   179  MET179      0.0692
     97  N         18.8850  104.9180   23.1500 N.3   183  LYS183     -0.1245
     98  CA        19.7290  104.0300   23.9480 C.3   183  LYS183      0.1561
     99  C         21.2230  104.2640   23.6590 C.2   183  LYS183      0.2260
    100  O         22.0620  104.1780   24.5530 O.2   183  LYS183     -0.2867
    101  CB        19.3470  102.5710   23.7090 C.3   183  LYS183      0.0271
    102  CG        17.9650  102.2070   24.2460 C.3   183  LYS183      0.0035
    103  CD        17.8150  102.6360   25.6970 C.3   183  LYS183      0.0206
    104  CE        16.5100  102.1220   26.2890 C.3   183  LYS183      0.1093
    105  NZ        16.3050  102.5280   27.7000 N.3   183  LYS183     -0.1314
    106  N         18.2780   91.9980   28.8310 N.3   211  GLY211     -0.1210
    107  CA        17.6480   91.1850   27.8060 C.3   211  GLY211      0.1940
    108  C         16.1370   91.3870   27.8180 C.2   211  GLY211      0.2454
    109  O         15.6250   92.2290   28.5570 O.2   211  GLY211     -0.2732
    110  N         15.4060   90.6060   27.0070 N.am  212  PRO212     -0.2717
    111  CA        13.9680   90.8650   26.8550 C.3   212  PRO212      0.1535
    112  C         13.1560   90.4170   28.0760 C.2   212  PRO212      0.2598
    113  O         13.4230   89.3730   28.6740 O.2   212  PRO212     -0.2715
    114  CB        13.5780   90.0310   25.6250 C.3   212  PRO212      0.0310
    115  CG        14.8290   89.2890   25.1870 C.3   212  PRO212      0.0237
    116  CD        15.8300   89.3930   26.2940 C.3   212  PRO212      0.0939
    117  N         12.1630   91.2210   28.4290 N.am  213  LEU213     -0.1978
    118  CA        11.2560   90.9250   29.5230 C.3   213  LEU213      0.1596
    119  C          9.8770   91.4310   29.1020 C.2   213  LEU213      0.2287
    120  O          9.7570   92.5430   28.5790 O.2   213  LEU213     -0.2864
    121  CB        11.7160   91.6480   30.7880 C.3   213  LEU213      0.0297
    122  CG        10.8770   91.4720   32.0520 C.3   213  LEU213      0.0022
    123  CD1       11.2750   90.1790   32.7550 C.3   213  LEU213      0.0001
    124  CD2       11.0580   92.6670   32.9700 C.3   213  LEU213      0.0001
    125  N          7.1670   93.2870   29.6120 N.3   215  SER215     -0.1217
    126  CA         6.6680   94.3460   30.4710 C.3   215  SER215      0.1889
    127  C          5.5740   95.1120   29.7450 C.2   215  SER215      0.2288
    128  O          5.2380   94.7910   28.6040 O.2   215  SER215     -0.2866
    129  CB         7.8060   95.2980   30.8360 C.3   215  SER215      0.2089
    130  OG         8.3930   95.8270   29.6620 O.3   215  SER215     -0.2183
    131  N          5.7590   98.3150   28.7250 N.3   217  ALA217     -0.1231
    132  CA         6.4680   98.9640   27.6290 C.3   217  ALA217      0.1694
    133  C          6.7820   98.0220   26.4630 C.2   217  ALA217      0.2591
    134  O          6.6400   98.4000   25.3000 O.2   217  ALA217     -0.2718
    135  CB         7.7360   99.5870   28.1450 C.3   217  ALA217      0.0304
    136  N          7.2160   96.8040   26.7770 N.am  218  ALA218     -0.1980
    137  CA         7.6270   95.8500   25.7480 C.3   218  ALA218      0.1597
    138  C          6.4830   95.4670   24.8030 C.2   218  ALA218      0.2287
    139  O          6.7070   95.1690   23.6250 O.2   218  ALA218     -0.2864
    140  CB         8.2310   94.6080   26.3870 C.3   218  ALA218      0.0319
    141  N          4.0130   97.5280   24.0890 N.3   220  ALA220     -0.1231
    142  CA         3.6820   98.7330   23.3350 C.3   220  ALA220      0.1694
    143  C          4.1770   98.6210   21.8930 C.2   220  ALA220      0.2591
    144  O          3.5820   99.1870   20.9730 O.2   220  ALA220     -0.2718
    145  CB         4.2740   99.9680   24.0120 C.3   220  ALA220      0.0304
    146  N          5.2730   97.8900   21.7070 N.am  221  ILE221     -0.1980
    147  CA         5.8050   97.6130   20.3750 C.3   221  ILE221      0.1595
    148  C          4.8830   96.6250   19.6470 C.2   221  ILE221      0.2287
    149  O          4.4880   95.6060   20.2150 O.2   221  ILE221     -0.2864
    150  CB         7.2470   97.0720   20.4670 C.3   221  ILE221      0.0276
    151  CG1        8.0320   97.8670   21.5180 C.3   221  ILE221      0.0022
    152  CG2        7.9280   97.1230   19.1090 C.3   221  ILE221      0.0022
    153  CD1        9.5400   97.8400   21.3340 C.3   221  ILE221      0.0001
    154  N          6.5280   91.2200   19.1450 N.3   224  PHE224     -0.1227
    155  CA         7.9500   91.5010   19.0280 C.3   224  PHE224      0.1736
    156  C          8.6690   91.0230   20.2850 C.2   224  PHE224      0.2595
    157  O          9.6860   90.3440   20.1990 O.2   224  PHE224     -0.2718
    158  CB         8.2080   92.9860   18.7770 C.3   224  PHE224      0.0547
    159  CG         8.2680   93.3480   17.3180 C.ar  224  PHE224     -0.0202
    160  CD1        9.1460   92.6890   16.4620 C.ar  224  PHE224     -0.0042
    161  CD2        7.4520   94.3440   16.7970 C.ar  224  PHE224     -0.0042
    162  CE1        9.2110   93.0180   15.1150 C.ar  224  PHE224     -0.0003
    163  CE2        7.5080   94.6750   15.4470 C.ar  224  PHE224     -0.0003
    164  CZ         8.3900   94.0120   14.6080 C.ar  224  PHE224     -0.0000
    165  N          8.1230   91.3560   21.4510 N.am  225  ILE225     -0.1980
    166  CA         8.7320   90.9300   22.7050 C.3   225  ILE225      0.1595
    167  C          8.6610   89.4130   22.8900 C.2   225  ILE225      0.2287
    168  O          9.5880   88.8130   23.4200 O.2   225  ILE225     -0.2864
    169  CB         8.1260   91.6530   23.9270 C.3   225  ILE225      0.0276
    170  CG1        8.9420   91.3390   25.1850 C.3   225  ILE225      0.0022
    171  CG2        6.6610   91.2780   24.1080 C.3   225  ILE225      0.0022
    172  CD1       10.4290   91.6740   25.0600 C.3   225  ILE225      0.0001
    173  N          8.6990   87.1520   20.5060 N.3   227  TYR227     -0.1227
    174  CA         9.7400   86.6160   19.6430 C.3   227  TYR227      0.1736
    175  C         11.1140   86.8600   20.2630 C.2   227  TYR227      0.2595
    176  O         11.9480   85.9540   20.3170 O.2   227  TYR227     -0.2718
    177  CB         9.6710   87.2420   18.2500 C.3   227  TYR227      0.0548
    178  CG        10.8460   86.8600   17.3770 C.ar  227  TYR227     -0.0200
    179  CD1       11.0240   85.5440   16.9610 C.ar  227  TYR227     -0.0009
    180  CD2       11.7850   87.8060   16.9850 C.ar  227  TYR227     -0.0009
    181  CE1       12.0990   85.1830   16.1700 C.ar  227  TYR227      0.0417
    182  CE2       12.8660   87.4550   16.1940 C.ar  227  TYR227      0.0417
    183  CZ        13.0180   86.1410   15.7890 C.ar  227  TYR227      0.1957
    184  OH        14.0880   85.7790   14.9980 O.3   227  TYR227     -0.2866
    185  N         11.3360   88.0860   20.7320 N.am  228  ALA228     -0.1980
    186  CA        12.5700   88.4450   21.4170 C.3   228  ALA228      0.1597
    187  C         12.8690   87.4500   22.5370 C.2   228  ALA228      0.2287
    188  O         13.9350   86.8380   22.5730 O.2   228  ALA228     -0.2864
    189  CB        12.4710   89.8600   21.9710 C.3   228  ALA228      0.0319
@<TRIPOS>BOND
     1    71    70    1
     2    71    72    1
     3    70    67    1
     4    67    66    1
     5    67    68    1
     6    72    66    1
     7    66    61   am
     8    68    73   am
     9    68    69    2
    10    73    74    1
    11   164   162   ar
    12   164   163   ar
    13   184   183    1
    14    74    75    1
    15   162   160   ar
    16    61    62    2
    17    61    60    1
    18   163   161   ar
    19    59    60    1
    20   183   181   ar
    21   183   182   ar
    22    60    63    1
    23   181   179   ar
    24   182   180   ar
    25    75    77   am
    26    75    76    2
    27   160   159   ar
    28    77    78    1
    29   161   159   ar
    30   179   178   ar
    31   180   178   ar
    32    80    79    2
    33    36    35    2
    34   159   158    1
    35    79    78    1
    36   178   177    1
    37    63    64    1
    38    63    65    1
    39    35    34    1
    40    78    81    1
    41   177   174    1
    42    33    34    1
    43    81    82    1
    44    34    37    1
    45   158   155    1
    46   155   154    1
    47   155   156    1
    48   152   150    1
    49    89    90    1
    50   174   175    1
    51   174   173    1
    52   148   149    2
    53   148   147    1
    54    82    84   ar
    55    82    83   ar
    56    37    39    1
    57    37    38    1
    58    84    86   ar
    59   157   156    2
    60   175   176    2
    61   175   185   am
    62   156   165   am
    63   147   150    1
    64   147   146    1
    65   150   151    1
    66    91    90    1
    67    91    92    2
    68    90    93    1
    69   185   186    1
    70   144   143    2
    71    83    85   ar
    72    93    94    1
    73   153   151    1
    74   186   189    1
    75   186   187    1
    76    86    87   ar
    77   165   166    1
    78    31    30    2
    79    32    29    1
    80    58    57    1
    81   146   143   am
    82    30    29    1
    83   143   142    1
    84    56    57   ar
    85    56    54   ar
    86    94    95    1
    87    85    87   ar
    88    29    28    1
    89    57    55   ar
    90    87    88    1
    91   187   188    2
    92    54    52   ar
    93   166   167    1
    94   166   169    1
    95   167   168    2
    96    97    98    1
    97    95    96    1
    98   142   145    1
    99   142   141    1
   100    50    49    2
   101   139   138    2
   102    99    98    1
   103    99   100    2
   104   101    98    1
   105   101   102    1
   106    55    53   ar
   107    28    22   am
   108   169   171    1
   109   169   170    1
   110    52    53   ar
   111    52    51    1
   112    49    48    1
   113   102   103    1
   114    23    22    2
   115    22    21    1
   116   138   137    1
   117    51    48    1
   118   172   170    1
   119   115   114    1
   120   115   116    1
   121    48    47    1
   122   134   133    2
   123   114   111    1
   124   103   104    1
   125   137   140    1
   126   137   136    1
   127    21    20    1
   128    21    24    1
   129    47    42   am
   130    26    25    2
   131   104   105    1
   132   116   110    1
   133    45    44    1
   134   133   136   am
   135   133   132    1
   136    20    17   am
   137   111   110    1
   138   111   112    1
   139    24    25    1
   140    25    27   am
   141   110   108   am
   142    42    43    2
   143    42    41    1
   144   132   135    1
   145   132   131    1
   146    44    46    1
   147    44    41    1
   148   107   108    1
   149   107   106    1
   150    19    16    1
   151   108   109    2
   152    17    18    2
   153    17    16    1
   154   112   117   am
   155   112   113    2
   156    41    40    1
   157   117   118    1
   158    16    15    1
   159   120   119    2
   160   128   127    2
   161   119   118    1
   162   118   121    1
   163   125   126    1
   164   130   129    1
   165   127   126    1
   166    15     9   am
   167   126   129    1
   168    10     9    2
   169     9     8    1
   170   121   122    1
   171    13    12    1
   172   122   123    1
   173   122   124    1
   174     8    11    1
   175     8     7    1
   176    11    12    1
   177    12    14    1
   178     7     3   am
   179     3     4    2
   180     3     2    1
   181     2     1    1
   182     2     5    1
   183     6     5    1
