@<TRIPOS>MOLECULE
tmp/2oleA00.pdb
 174 170 0 0 0
SMALL
GASTEIGER

@<TRIPOS>ATOM
      1  N          6.1390    1.0740   -3.8300 N.3    87  ARG87      -0.1231
      2  CA         5.1910    0.3830   -4.6830 C.3    87  ARG87       0.1694
      3  C          5.7160    0.1140   -6.0700 C.2    87  ARG87       0.2592
      4  O          5.3730   -0.8930   -6.6350 O.2    87  ARG87      -0.2718
      5  CB         3.8740    1.1390   -4.7940 C.3    87  ARG87       0.0321
      6  CG         2.8340    0.4110   -5.6540 C.3    87  ARG87       0.0489
      7  CD         1.6350    1.2950   -5.8600 C.3    87  ARG87       0.2205
      8  NE         1.0810    1.8190   -4.5970 N.pl3  87  ARG87      -0.0865
      9  CZ         0.1260    1.2410   -3.8670 C.cat  87  ARG87       0.5346
     10  NH1       -0.4160    0.0920   -4.2310 N.pl3  87  ARG87       0.1354
     11  NH2       -0.3360    1.8450   -2.7830 N.pl3  87  ARG87       0.1354
     12  N          6.5320    1.0000   -6.6370 N.am   88  HIS88      -0.1976
     13  CA         7.0310    0.7170   -7.9780 C.3    88  HIS88       0.1656
     14  C          8.5500    0.7010   -8.0600 C.2    88  HIS88       0.2291
     15  O          9.1110   -0.0090   -8.9000 O.2    88  HIS88      -0.2864
     16  CB         6.4830    1.7150   -9.0180 C.3    88  HIS88       0.0771
     17  CG         4.9970    1.8630   -8.9950 C.ar   88  HIS88       0.0820
     18  ND1        4.3650    2.9800   -8.4830 N.ar   88  HIS88      -0.2267
     19  CD2        4.0130    1.0240   -9.3860 C.ar   88  HIS88       0.1154
     20  CE1        3.0570    2.8250   -8.5580 C.ar   88  HIS88       0.1986
     21  NE2        2.8160    1.6450   -9.0970 N.ar   88  HIS88      -0.2212
     22  N          4.2770    7.3640   -5.6790 N.3   167  GLU167     -0.1231
     23  CA         3.0060    6.8700   -5.1960 C.3   167  GLU167      0.1699
     24  C          1.7910    7.6220   -5.7230 C.2   167  GLU167      0.2592
     25  O          0.8450    7.0070   -6.2020 O.2   167  GLU167     -0.2718
     26  CB         2.9630    6.9320   -3.6560 C.3   167  GLU167      0.0402
     27  CG         1.5950    6.5620   -3.0820 C.3   167  GLU167      0.1161
     28  CD         1.2790    5.0390   -3.1100 C.2   167  GLU167      0.3649
     29  OE1        2.1690    4.2070   -3.4770 O.co2 167  GLU167     -0.2457
     30  OE2        0.1300    4.6700   -2.7350 O.co2 167  GLU167     -0.2457
     31  N          1.8330    8.9520   -5.6380 N.am  168  GLU168     -0.1966
     32  CA         0.6870    9.7720   -6.0330 C.3   168  GLU168      0.1733
     33  C          0.5880   10.3520   -7.4290 C.2   168  GLU168      0.2616
     34  O         -0.5340   10.6090   -7.8520 O.2   168  GLU168     -0.2715
     35  CB         0.4950   10.9350   -5.0460 C.3   168  GLU168      0.0429
     36  CG         0.6350   10.5580   -3.5840 C.3   168  GLU168      0.1163
     37  CD        -0.3360    9.4760   -3.1850 C.2   168  GLU168      0.3649
     38  OE1       -0.9700    8.8890   -4.0820 O.co2 168  GLU168     -0.2457
     39  OE2       -0.4790    9.2030   -1.9720 O.co2 168  GLU168     -0.2457
     40  N          1.6910   10.6030   -8.1480 N.am  169  VAL169     -0.1977
     41  CA         1.4590   11.1840   -9.4510 C.3   169  VAL169      0.1596
     42  C          1.8270   10.3600  -10.6560 C.2   169  VAL169      0.2287
     43  O          0.9620   10.1450  -11.5060 O.2   169  VAL169     -0.2864
     44  CB         1.9960   12.6700   -9.5620 C.3   169  VAL169      0.0276
     45  CG1        2.8080   13.0690   -8.3370 C.3   169  VAL169      0.0022
     46  CG2        2.7330   12.8760  -10.8690 C.3   169  VAL169      0.0022
     47  N          2.8610    7.0250  -10.5960 N.3   171  SER171     -0.1217
     48  CA         2.7160    5.5910  -10.4240 C.3   171  SER171      0.1889
     49  C          3.8920    4.8500  -11.0780 C.2   171  SER171      0.2288
     50  O          3.6960    3.8750  -11.7910 O.2   171  SER171     -0.2866
     51  CB         1.4160    5.1300  -11.0220 C.3   171  SER171      0.2089
     52  OG         0.3560    5.6890  -10.3040 O.3   171  SER171     -0.2183
     53  N         -7.5520   11.2980  -10.9450 N.3   319  PHE319     -0.1241
     54  CA        -6.5130   11.3450   -9.9050 C.3   319  PHE319      0.1605
     55  C         -5.4640   12.4060  -10.2340 C.2   319  PHE319      0.2264
     56  O         -4.6580   12.7770   -9.3880 O.2   319  PHE319     -0.2867
     57  CB        -5.8290    9.9920   -9.7320 C.3   319  PHE319      0.0534
     58  CG        -6.6830    8.9760   -9.0510 C.ar  319  PHE319     -0.0203
     59  CD1       -6.6740    8.8740   -7.6660 C.ar  319  PHE319     -0.0042
     60  CD2       -7.5010    8.1110   -9.7910 C.ar  319  PHE319     -0.0042
     61  CE1       -7.4720    7.9150   -6.9940 C.ar  319  PHE319     -0.0003
     62  CE2       -8.3030    7.1410   -9.1320 C.ar  319  PHE319     -0.0003
     63  CZ        -8.2850    7.0450   -7.7270 C.ar  319  PHE319     -0.0000
     64  N        -13.8580   -0.1360    0.4740 N.3   509  TYR509     -0.1241
     65  CA       -12.6710    0.6070    0.1260 C.3   509  TYR509      0.1605
     66  C        -13.2060    2.0380    0.0990 C.2   509  TYR509      0.2264
     67  O        -12.8870    2.8360    0.9660 O.2   509  TYR509     -0.2867
     68  CB       -12.1240    0.2070   -1.2190 C.3   509  TYR509      0.0534
     69  CG       -10.8730    0.9760   -1.5090 C.ar  509  TYR509     -0.0201
     70  CD1      -10.8620    2.0280   -2.4260 C.ar  509  TYR509     -0.0009
     71  CD2       -9.7160    0.7240   -0.7800 C.ar  509  TYR509     -0.0009
     72  CE1       -9.7180    2.8120   -2.5950 C.ar  509  TYR509      0.0417
     73  CE2       -8.5950    1.5020   -0.9350 C.ar  509  TYR509      0.0417
     74  CZ        -8.5970    2.5510   -1.8390 C.ar  509  TYR509      0.1957
     75  OH        -7.4810    3.3660   -1.9130 O.3   509  TYR509     -0.2866
     76  N         -6.4300   -0.1010    4.0370 N.3   592  SER592     -0.1202
     77  CA        -5.9900    1.2110    3.5800 C.3   592  SER592      0.2020
     78  C         -7.0950    2.2700    3.7340 C.2   592  SER592      0.2618
     79  O         -7.4490    2.5820    4.8460 O.2   592  SER592     -0.2717
     80  CB        -5.5060    1.0170    2.1330 C.3   592  SER592      0.2103
     81  OG        -5.0730    2.2140    1.5320 O.3   592  SER592     -0.2182
     82  N         -7.6160    2.8480    2.6510 N.am  593  TYR593     -0.1975
     83  CA        -8.7160    3.8150    2.7790 C.3   593  TYR593      0.1639
     84  C         -9.8880    3.0350    3.3120 C.2   593  TYR593      0.2290
     85  O        -10.7110    3.5840    4.0200 O.2   593  TYR593     -0.2864
     86  CB        -9.1630    4.3850    1.4250 C.3   593  TYR593      0.0560
     87  CG       -10.0110    5.6440    1.5110 C.ar  593  TYR593     -0.0198
     88  CD1      -11.3940    5.5960    1.7330 C.ar  593  TYR593     -0.0009
     89  CD2       -9.4050    6.8950    1.3980 C.ar  593  TYR593     -0.0009
     90  CE1      -12.1510    6.7850    1.8410 C.ar  593  TYR593      0.0417
     91  CE2      -10.1290    8.0790    1.5080 C.ar  593  TYR593      0.0417
     92  CZ       -11.4910    8.0270    1.7300 C.ar  593  TYR593      0.1957
     93  OH       -12.1420    9.2270    1.8740 O.3   593  TYR593     -0.2866
     94  N         -5.9450    4.7820    7.6300 N.3   618  VAL618     -0.1245
     95  CA        -5.5530    6.1670    7.8100 C.3   618  VAL618      0.1561
     96  C         -6.4160    6.4420    9.0690 C.2   618  VAL618      0.2260
     97  O         -7.4970    5.8300    9.2360 O.2   618  VAL618     -0.2867
     98  CB        -6.0790    7.0740    6.6820 C.3   618  VAL618      0.0252
     99  CG1       -6.2940    8.4800    7.2150 C.3   618  VAL618      0.0019
    100  CG2       -5.0720    7.1520    5.5650 C.3   618  VAL618      0.0019
    101  N         -6.2340   12.6560    8.6080 N.3   621  TRP621     -0.1241
    102  CA        -5.6480   13.1550    7.4030 C.3   621  TRP621      0.1605
    103  C         -4.3750   13.9220    7.4930 C.2   621  TRP621      0.2264
    104  O         -3.5980   13.9170    6.5460 O.2   621  TRP621     -0.2867
    105  CB        -6.7120   13.8810    6.5880 C.3   621  TRP621      0.0550
    106  CG        -7.7210   12.8780    6.0830 C.ar  621  TRP621      0.0003
    107  CD1       -9.0170   12.7130    6.5040 C.ar  621  TRP621      0.0946
    108  CD2       -7.4580   11.8060    5.1790 C.ar  621  TRP621      0.0152
    109  NE1       -9.5720   11.5810    5.9170 N.ar  621  TRP621     -0.2442
    110  CE2       -8.6290   11.0120    5.1030 C.ar  621  TRP621      0.0810
    111  CE3       -6.3380   11.4330    4.4330 C.ar  621  TRP621      0.0012
    112  CZ2       -8.7120    9.8770    4.3190 C.ar  621  TRP621      0.0191
    113  CZ3       -6.4130   10.2870    3.6430 C.ar  621  TRP621      0.0001
    114  CH2       -7.6010    9.5210    3.5940 C.ar  621  TRP621      0.0015
    115  N         -1.4490   11.7050    6.5120 N.3   624  TYR624     -0.1241
    116  CA        -1.1800   11.1910    5.1520 C.3   624  TYR624      0.1605
    117  C         -0.4630   12.1730    4.2770 C.2   624  TYR624      0.2264
    118  O         -0.3540   13.3460    4.6380 O.2   624  TYR624     -0.2867
    119  CB        -2.4510   10.7070    4.4870 C.3   624  TYR624      0.0534
    120  CG        -2.1820    9.6100    3.4700 C.ar  624  TYR624     -0.0201
    121  CD1       -1.3740    8.4990    3.7790 C.ar  624  TYR624     -0.0009
    122  CD2       -2.6420    9.7410    2.1690 C.ar  624  TYR624     -0.0009
    123  CE1       -1.0310    7.5920    2.8220 C.ar  624  TYR624      0.0417
    124  CE2       -2.3070    8.8310    1.2040 C.ar  624  TYR624      0.0417
    125  CZ        -1.4990    7.7670    1.5290 C.ar  624  TYR624      0.1957
    126  OH        -1.1510    6.9070    0.5230 O.3   624  TYR624     -0.2866
    127  N         -1.9730   13.5030   -2.0710 N.3   628  TYR628     -0.1241
    128  CA        -3.2330   12.7950   -2.0470 C.3   628  TYR628      0.1605
    129  C         -4.2320   13.5130   -1.1670 C.2   628  TYR628      0.2264
    130  O         -5.3160   13.8710   -1.6120 O.2   628  TYR628     -0.2867
    131  CB        -3.0370   11.3650   -1.5200 C.3   628  TYR628      0.0534
    132  CG        -4.2880   10.5300   -1.5360 C.ar  628  TYR628     -0.0201
    133  CD1       -5.1870   10.5480   -0.4680 C.ar  628  TYR628     -0.0009
    134  CD2       -4.5630    9.6850   -2.6150 C.ar  628  TYR628     -0.0009
    135  CE1       -6.3530    9.7260   -0.4730 C.ar  628  TYR628      0.0417
    136  CE2       -5.7060    8.8500   -2.6390 C.ar  628  TYR628      0.0417
    137  CZ        -6.5860    8.8820   -1.5710 C.ar  628  TYR628      0.1957
    138  OH        -7.6800    8.0780   -1.5840 O.3   628  TYR628     -0.2866
    139  N         -5.4810   16.9490   -2.2650 N.3   631  ARG631     -0.1245
    140  CA        -6.3110   16.8690   -3.4610 C.3   631  ARG631      0.1563
    141  C         -7.7920   16.8200   -3.0820 C.2   631  ARG631      0.2260
    142  O         -8.6240   17.4000   -3.7550 O.2   631  ARG631     -0.2867
    143  CB        -5.9370   15.6350   -4.2590 C.3   631  ARG631      0.0307
    144  CG        -6.7960   15.3430   -5.4790 C.3   631  ARG631      0.0489
    145  CD        -5.9230   14.6930   -6.5800 C.3   631  ARG631      0.2205
    146  NE        -5.5770   13.3120   -6.2940 N.pl3 631  ARG631     -0.0865
    147  CZ        -4.3630   12.7900   -6.4100 C.cat 631  ARG631      0.5346
    148  NH1       -3.3220   13.5030   -6.8010 N.pl3 631  ARG631      0.1354
    149  NH2       -4.2160   11.5160   -6.1320 N.pl3 631  ARG631      0.1354
    150  N          3.8660    4.0120    3.7190 N.3   672  ASN672     -0.1225
    151  CA         2.7410    4.6830    3.0860 C.3   672  ASN672      0.1785
    152  C          1.7760    5.1990    4.1400 C.2   672  ASN672      0.2597
    153  O          1.6300    6.3860    4.3080 O.2   672  ASN672     -0.2718
    154  CB         2.0330    3.6700    2.1730 C.3   672  ASN672      0.1169
    155  CG         1.2530    4.3310    1.0610 C.2   672  ASN672      0.2627
    156  OD1        0.6450    5.3990    1.2570 O.2   672  ASN672     -0.2716
    157  ND2        1.2510    3.6940   -0.1220 N.am  672  ASN672     -0.0877
    158  N          1.0820    4.2940    4.8230 N.am  673  VAL673     -0.1980
    159  CA         0.2060    4.7190    5.9160 C.3   673  VAL673      0.1595
    160  C          1.0230    4.3390    7.1660 C.2   673  VAL673      0.2287
    161  O          0.9620    3.1940    7.6120 O.2   673  VAL673     -0.2864
    162  CB        -1.1420    3.9630    5.9180 C.3   673  VAL673      0.0276
    163  CG1       -2.0040    4.3840    7.1440 C.3   673  VAL673      0.0022
    164  CG2       -1.9060    4.2440    4.6320 C.3   673  VAL673      0.0022
    165  N          2.7160   -1.5210    3.6290 N.3   702  HIS702     -0.1241
    166  CA         1.3090   -1.3220    3.3440 C.3   702  HIS702      0.1621
    167  C          0.5980   -2.4960    2.6840 C.2   702  HIS702      0.2264
    168  O         -0.6180   -2.5740    2.7160 O.2   702  HIS702     -0.2867
    169  CB         1.1220   -0.0860    2.4700 C.3   702  HIS702      0.0745
    170  CG        -0.2640    0.4560    2.5160 C.ar  702  HIS702      0.0817
    171  ND1       -0.9000    0.7520    3.7080 N.ar  702  HIS702     -0.2268
    172  CD2       -1.1270    0.7770    1.5260 C.ar  702  HIS702      0.1154
    173  CE1       -2.0980    1.2380    3.4470 C.ar  702  HIS702      0.1986
    174  NE2       -2.2630    1.2610    2.1280 N.ar  702  HIS702     -0.2212
@<TRIPOS>BOND
     1    50    49    2
     2    43    42    2
     3    49    48    1
     4    51    48    1
     5    51    52    1
     6    53    54    1
     7    46    44    1
     8    42    41    1
     9    47    48    1
    10    55    54    1
    11    55    56    2
    12    54    57    1
    13    60    62   ar
    14    60    58   ar
    15    57    58    1
    16    44    41    1
    17    44    45    1
    18    41    40    1
    19    19    21   ar
    20    19    17   ar
    21    62    63   ar
    22    21    20   ar
    23    58    59   ar
    24    16    17    1
    25    16    13    1
    26    17    18   ar
    27    15    14    2
    28    20    18   ar
    29    40    33   am
    30    14    13    1
    31    13    12    1
    32    34    33    2
    33    63    61   ar
    34    59    61   ar
    35    33    32    1
    36   148   147    1
    37    12     3   am
    38     4     3    2
    39   145   146    1
    40   145   144    1
    41   147   146    2
    42   147   149    1
    43    25    24    2
    44     3     2    1
    45    32    31    1
    46    32    35    1
    47     7     6    1
    48     7     8    1
    49    24    31   am
    50    24    23    1
    51    22    23    1
    52     6     5    1
    53   144   143    1
    54    23    26    1
    55    35    36    1
    56     5     2    1
    57     2     1    1
    58     8     9    2
    59   143   140    1
    60    10     9    1
    61    38    37   ar
    62     9    11    1
    63   142   141    2
    64    26    27    1
    65    36    37    1
    66    29    28   ar
    67   140   141    1
    68   140   139    1
    69    37    39   ar
    70    28    27    1
    71    28    30   ar
    72   136   134   ar
    73   136   137   ar
    74   134   132   ar
    75    72    70   ar
    76    72    74   ar
    77    70    69   ar
    78   127   128    1
    79   128   131    1
    80   128   129    1
    81    75    74    1
    82    74    73   ar
    83   130   129    2
    84   138   137    1
    85   137   135   ar
    86   132   131    1
    87   132   133   ar
    88    69    68    1
    89    69    71   ar
    90    68    65    1
    91    73    71   ar
    92   135   133   ar
    93   157   155   am
    94    66    65    1
    95    66    67    2
    96    65    64    1
    97   126   125    1
    98   155   156    2
    99   155   154    1
   100   124   125   ar
   101   124   122   ar
   102    89    91   ar
   103    89    87   ar
   104    86    87    1
   105    86    83    1
   106    91    92   ar
   107    87    88   ar
   108   172   174   ar
   109   172   170   ar
   110   125   123   ar
   111    81    80    1
   112    92    90   ar
   113    92    93    1
   114    88    90   ar
   115   174   173   ar
   116    80    77    1
   117   122   120   ar
   118   154   151    1
   119   169   170    1
   120   169   166    1
   121   170   171   ar
   122    82    83    1
   123    82    78   am
   124   167   168    2
   125   167   166    1
   126    83    84    1
   127   123   121   ar
   128   151   150    1
   129   151   152    1
   130    84    85    2
   131   166   165    1
   132   173   171   ar
   133   120   121   ar
   134   120   119    1
   135    77    78    1
   136    77    76    1
   137   114   113   ar
   138   114   112   ar
   139   113   111   ar
   140    78    79    2
   141   152   153    2
   142   152   158   am
   143   117   118    2
   144   117   116    1
   145   112   110   ar
   146   111   108   ar
   147   119   116    1
   148   164   162    1
   149   158   159    1
   150   110   108   ar
   151   110   109   ar
   152   116   115    1
   153   108   106   ar
   154   100    98    1
   155   159   162    1
   156   159   160    1
   157   109   107   ar
   158   162   163    1
   159   106   107   ar
   160   106   105    1
   161   104   103    2
   162   105   102    1
   163    98    99    1
   164    98    95    1
   165   160   161    2
   166   102   103    1
   167   102   101    1
   168    94    95    1
   169    95    96    1
   170    96    97    2
