@<TRIPOS>MOLECULE
tmp/2olhA00.pdb
 146 143 0 0 0
SMALL
GASTEIGER

@<TRIPOS>ATOM
      1  N        -17.6970    0.9890  -10.7330 N.3     8  THR8       -0.1218
      2  CA       -17.1900    2.2850  -11.1650 C.3     8  THR8        0.1862
      3  C        -18.2190    3.2460  -11.7650 C.2     8  THR8        0.2287
      4  O        -18.9800    2.9030  -12.6640 O.2     8  THR8       -0.2866
      5  CB       -15.9860    2.1290  -12.1270 C.3     8  THR8        0.1770
      6  OG1      -16.3840    1.4280  -13.3110 O.3     8  THR8       -0.2211
      7  CG2      -14.8710    1.3660  -11.4200 C.3     8  THR8        0.0375
      8  N        -18.1600    5.9550  -13.8230 N.3    10  TRP10      -0.1241
      9  CA       -18.1830    6.2030  -15.2540 C.3    10  TRP10       0.1605
     10  C        -18.6400    5.0720  -16.1770 C.2    10  TRP10       0.2264
     11  O        -18.6790    5.2500  -17.3990 O.2    10  TRP10      -0.2867
     12  CB       -16.8040    6.6810  -15.6770 C.3    10  TRP10       0.0550
     13  CG       -15.7230    5.6730  -15.4600 C.ar   10  TRP10       0.0003
     14  CD1      -15.2470    4.7810  -16.3730 C.ar   10  TRP10       0.0946
     15  CD2      -14.9730    5.4520  -14.2550 C.ar   10  TRP10       0.0152
     16  NE1      -14.2490    4.0180  -15.8190 N.ar   10  TRP10      -0.2442
     17  CE2      -14.0620    4.4030  -14.5170 C.ar   10  TRP10       0.0810
     18  CE3      -14.9870    6.0310  -12.9760 C.ar   10  TRP10       0.0012
     19  CZ2      -13.1610    3.9260  -13.5520 C.ar   10  TRP10       0.0191
     20  CZ3      -14.0890    5.5550  -12.0160 C.ar   10  TRP10       0.0001
     21  CH2      -13.1940    4.5090  -12.3120 C.ar   10  TRP10       0.0015
     22  N        -20.9010    3.9240  -20.8000 N.3    14  ARG14      -0.1245
     23  CA       -20.4980    2.9980  -21.8480 C.3    14  ARG14       0.1563
     24  C        -21.6550    2.7610  -22.7870 C.2    14  ARG14       0.2260
     25  O        -22.8090    2.7520  -22.3690 O.2    14  ARG14      -0.2867
     26  CB       -19.9910    1.7000  -21.2390 C.3    14  ARG14       0.0307
     27  CG       -18.5850    1.8870  -20.7440 C.3    14  ARG14       0.0489
     28  CD       -18.0560    0.7320  -19.9550 C.3    14  ARG14       0.2205
     29  NE       -16.8780    1.1810  -19.2280 N.pl3  14  ARG14      -0.0865
     30  CZ       -16.4400    0.6370  -18.1040 C.cat  14  ARG14       0.5346
     31  NH1      -17.0790   -0.3960  -17.5700 N.pl3  14  ARG14       0.1354
     32  NH2      -15.3910    1.1600  -17.4920 N.pl3  14  ARG14       0.1354
     33  N        -15.2450    6.1600   -6.4060 N.3    37  PHE37      -0.1241
     34  CA       -14.7720    7.5110   -6.4720 C.3    37  PHE37       0.1605
     35  C        -15.6010    8.7410   -6.2500 C.2    37  PHE37       0.2264
     36  O        -16.3650    9.2230   -7.0940 O.2    37  PHE37      -0.2867
     37  CB       -13.8480    7.6120   -7.6850 C.3    37  PHE37       0.0534
     38  CG       -12.7520    6.5750   -7.6510 C.ar   37  PHE37      -0.0203
     39  CD1      -12.2420    5.9960   -8.8270 C.ar   37  PHE37      -0.0042
     40  CD2      -12.3510    6.0480   -6.4180 C.ar   37  PHE37      -0.0042
     41  CE1      -11.3670    4.8930   -8.7600 C.ar   37  PHE37      -0.0003
     42  CE2      -11.4760    4.9410   -6.3470 C.ar   37  PHE37      -0.0003
     43  CZ       -10.9920    4.3680   -7.5280 C.ar   37  PHE37      -0.0000
     44  N         -8.0690    6.7860   -9.4340 N.3    78  TRP78      -0.1227
     45  CA        -7.0630    6.9760  -10.4840 C.3    78  TRP78       0.1737
     46  C         -7.1060    8.3530  -11.2000 C.2    78  TRP78       0.2595
     47  O         -6.1170    8.7530  -11.7980 O.2    78  TRP78      -0.2718
     48  CB        -7.1800    5.9070  -11.5490 C.3    78  TRP78       0.0564
     49  CG        -7.1940    4.5220  -10.9920 C.ar   78  TRP78       0.0003
     50  CD1       -8.3020    3.7390  -10.7970 C.ar   78  TRP78       0.0946
     51  CD2       -6.0820    3.7170  -10.6290 C.ar   78  TRP78       0.0152
     52  NE1       -7.9400    2.5210  -10.2880 N.ar   78  TRP78      -0.2442
     53  CE2       -6.5770    2.4810  -10.1710 C.ar   78  TRP78       0.0810
     54  CE3       -4.7070    3.9370  -10.6480 C.ar   78  TRP78       0.0012
     55  CZ2       -5.7390    1.4690   -9.7120 C.ar   78  TRP78       0.0191
     56  CZ3       -3.8720    2.9430  -10.2140 C.ar   78  TRP78       0.0001
     57  CH2       -4.3880    1.7160   -9.7400 C.ar   78  TRP78       0.0015
     58  N         -8.2230    9.0830  -11.1580 N.am   79  ASN79      -0.1974
     59  CA        -8.2530   10.4110  -11.8160 C.3    79  ASN79       0.1688
     60  C         -8.2260   11.5370  -10.8050 C.2    79  ASN79       0.2292
     61  O         -8.5060   12.6890  -11.1340 O.2    79  ASN79      -0.2864
     62  CB        -9.4880   10.6190  -12.7060 C.3    79  ASN79       0.1181
     63  CG        -9.6150    9.5760  -13.7680 C.2    79  ASN79       0.2629
     64  OD1       -8.6390    8.9130  -14.1160 O.2    79  ASN79      -0.2716
     65  ND2      -10.8160    9.4290  -14.3100 N.am   79  ASN79      -0.0877
     66  N         -2.6020   -6.6890   -9.1200 N.3   185  TYR185     -0.1227
     67  CA        -2.8690   -6.8600  -10.5530 C.3   185  TYR185      0.1736
     68  C         -2.3410   -5.7970  -11.5190 C.2   185  TYR185      0.2595
     69  O         -2.8270   -5.6820  -12.6410 O.2   185  TYR185     -0.2718
     70  CB        -4.3850   -7.0280  -10.7680 C.3   185  TYR185      0.0548
     71  CG        -5.2640   -5.9620  -10.1410 C.ar  185  TYR185     -0.0200
     72  CD1       -5.1360   -4.6120  -10.4920 C.ar  185  TYR185     -0.0009
     73  CD2       -6.2470   -6.3070   -9.2060 C.ar  185  TYR185     -0.0009
     74  CE1       -5.9650   -3.6400   -9.9190 C.ar  185  TYR185      0.0417
     75  CE2       -7.0830   -5.3370   -8.6470 C.ar  185  TYR185      0.0417
     76  CZ        -6.9350   -4.0120   -9.0050 C.ar  185  TYR185      0.1957
     77  OH        -7.7750   -3.0580   -8.4730 O.3   185  TYR185     -0.2866
     78  N         -1.3410   -5.0460  -11.1060 N.am  186  ASP186     -0.1974
     79  CA        -0.8490   -4.0000  -11.9590 C.3   186  ASP186      0.1709
     80  C          0.6400   -4.0140  -11.7390 C.2   186  ASP186      0.2293
     81  O          1.2690   -3.0250  -11.3880 O.2   186  ASP186     -0.2864
     82  CB        -1.5500   -2.7080  -11.5470 C.3   186  ASP186      0.1436
     83  CG        -0.6920   -1.4910  -11.6340 C.2   186  ASP186      0.3671
     84  OD1       -0.3880   -0.9390  -10.5390 O.co2 186  ASP186     -0.2456
     85  OD2       -0.3560   -1.0660  -12.7720 O.co2 186  ASP186     -0.2456
     86  N        -10.4530   -7.4180  -15.6150 N.3   239  PHE239     -0.1241
     87  CA       -10.1000   -6.8070  -16.8890 C.3   239  PHE239      0.1605
     88  C         -8.8460   -7.4750  -17.4440 C.2   239  PHE239      0.2264
     89  O         -8.2320   -8.3140  -16.7950 O.2   239  PHE239     -0.2867
     90  CB        -9.8580   -5.2940  -16.7290 C.3   239  PHE239      0.0534
     91  CG        -8.7490   -4.9450  -15.7800 C.ar  239  PHE239     -0.0203
     92  CD1       -9.0000   -4.8070  -14.4190 C.ar  239  PHE239     -0.0042
     93  CD2       -7.4530   -4.7410  -16.2490 C.ar  239  PHE239     -0.0042
     94  CE1       -7.9740   -4.4690  -13.5310 C.ar  239  PHE239     -0.0003
     95  CE2       -6.4190   -4.4040  -15.3780 C.ar  239  PHE239     -0.0003
     96  CZ        -6.6800   -4.2660  -14.0100 C.ar  239  PHE239     -0.0000
     97  N         -5.1630   -6.8110  -19.9460 N.3   241  ARG241     -0.1245
     98  CA        -4.2970   -5.7340  -20.3940 C.3   241  ARG241      0.1563
     99  C         -3.7800   -6.1300  -21.7970 C.2   241  ARG241      0.2260
    100  O         -3.2670   -7.2440  -21.9650 O.2   241  ARG241     -0.2867
    101  CB        -3.1730   -5.5350  -19.3880 C.3   241  ARG241      0.0307
    102  CG        -3.1610   -4.1110  -18.9280 C.3   241  ARG241      0.0489
    103  CD        -3.1390   -3.9330  -17.4420 C.3   241  ARG241      0.2205
    104  NE        -3.5300   -2.5460  -17.2500 N.pl3 241  ARG241     -0.0865
    105  CZ        -3.5780   -1.9650  -16.0520 C.cat 241  ARG241      0.5346
    106  NH1       -3.2490   -2.6760  -14.9550 N.pl3 241  ARG241      0.1354
    107  NH2       -3.9640   -0.6900  -15.9130 N.pl3 241  ARG241      0.1354
    108  N        -10.7450    2.3450  -24.5070 N.3   268  GLU268     -0.1245
    109  CA        -9.5590    2.7930  -23.7600 C.3   268  GLU268      0.1567
    110  C         -8.2980    1.9740  -24.0540 C.2   268  GLU268      0.2260
    111  O         -8.2240    0.7880  -23.7390 O.2   268  GLU268     -0.2867
    112  CB        -9.8400    2.7440  -22.2560 C.3   268  GLU268      0.0388
    113  CG        -8.8800    3.5640  -21.3830 C.3   268  GLU268      0.1160
    114  CD        -9.0640    3.2890  -19.8960 C.2   268  GLU268      0.3649
    115  OE1      -10.1530    2.8100  -19.5110 O.co2 268  GLU268     -0.2457
    116  OE2       -8.1250    3.5570  -19.1090 O.co2 268  GLU268     -0.2457
    117  N         -6.6440   -1.5570  -22.2740 N.3   271  ILE271     -0.1245
    118  CA        -7.5180   -2.2820  -21.3610 C.3   271  ILE271      0.1561
    119  C         -8.7310   -2.8670  -22.0810 C.2   271  ILE271      0.2260
    120  O         -9.2840   -2.2470  -22.9820 O.2   271  ILE271     -0.2867
    121  CB        -8.0090   -1.3760  -20.1910 C.3   271  ILE271      0.0252
    122  CG1       -6.9950   -1.3960  -19.0490 C.3   271  ILE271      0.0019
    123  CG2       -9.3130   -1.8880  -19.6290 C.3   271  ILE271      0.0019
    124  CD1       -5.7200   -0.6280  -19.3210 C.3   271  ILE271      0.0001
    125  N        -11.7730   -6.1960   -8.8860 N.3   330  TRP330     -0.1241
    126  CA       -11.8400   -4.8520   -9.3950 C.3   330  TRP330      0.1605
    127  C        -12.6630   -4.8230  -10.6550 C.2   330  TRP330      0.2264
    128  O        -12.3140   -5.3900  -11.6930 O.2   330  TRP330     -0.2867
    129  CB       -10.4750   -4.2130   -9.6790 C.3   330  TRP330      0.0550
    130  CG       -10.6050   -2.9470  -10.5070 C.ar  330  TRP330      0.0003
    131  CD1      -10.4710   -2.8430  -11.8600 C.ar  330  TRP330      0.0946
    132  CD2      -10.9710   -1.6400  -10.0420 C.ar  330  TRP330      0.0152
    133  NE1      -10.7340   -1.5650  -12.2680 N.ar  330  TRP330     -0.2442
    134  CE2      -11.0440   -0.8030  -11.1780 C.ar  330  TRP330      0.0810
    135  CE3      -11.2450   -1.1010   -8.7840 C.ar  330  TRP330      0.0012
    136  CZ2      -11.3820    0.5540  -11.0870 C.ar  330  TRP330      0.0191
    137  CZ3      -11.5810    0.2430   -8.6940 C.ar  330  TRP330      0.0001
    138  CH2      -11.6490    1.0550   -9.8410 C.ar  330  TRP330      0.0015
    139  N        -16.7580   -4.7310  -15.3140 N.3   334  LEU334     -0.1245
    140  CA       -15.8020   -5.1860  -16.3240 C.3   334  LEU334      0.1561
    141  C        -16.0040   -6.6980  -16.5050 C.2   334  LEU334      0.2260
    142  O        -15.5090   -7.3070  -17.4770 O.2   334  LEU334     -0.2867
    143  CB       -14.3590   -4.8570  -15.8960 C.3   334  LEU334      0.0270
    144  CG       -14.1370   -3.3410  -15.8620 C.3   334  LEU334      0.0019
    145  CD1      -12.7270   -3.0280  -15.3510 C.3   334  LEU334      0.0001
    146  CD2      -14.3530   -2.7480  -17.2630 C.3   334  LEU334      0.0001
@<TRIPOS>BOND
     1   108   109    1
     2   110   109    1
     3   110   111    2
     4   109   112    1
     5   120   119    2
     6    24    25    2
     7    24    23    1
     8   117   118    1
     9   112   113    1
    10   119   118    1
    11   100    99    2
    12    23    26    1
    13    23    22    1
    14    99    98    1
    15   113   114    1
    16   118   121    1
    17    26    27    1
    18    27    28    1
    19    98    97    1
    20    98   101    1
    21   121   123    1
    22   121   122    1
    23    28    29    1
    24   114   115   ar
    25   114   116   ar
    26   101   102    1
    27   124   122    1
    28    29    30    2
    29   102   103    1
    30    30    31    1
    31    30    32    1
    32   142   141    2
    33    88    87    1
    34    88    89    2
    35   103   104    1
    36    11    10    2
    37   146   144    1
    38   104   105    2
    39    87    90    1
    40    87    86    1
    41    90    91    1
    42   141   140    1
    43    14    16   ar
    44    14    13   ar
    45   140   143    1
    46   140   139    1
    47    93    91   ar
    48    93    95   ar
    49    10     9    1
    50   105   107    1
    51   105   106    1
    52   143   144    1
    53   144   145    1
    54    16    17   ar
    55    91    92   ar
    56    12    13    1
    57    12     9    1
    58    13    15   ar
    59    95    96   ar
    60     9     8    1
    61    17    15   ar
    62    17    19   ar
    63    92    94   ar
    64    65    63   am
    65    15    18   ar
    66    64    63    2
    67    96    94   ar
    68    63    62    1
    69    19    21   ar
    70     6     5    1
    71    18    20   ar
    72    85    83   ar
    73    62    59    1
    74     4     3    2
    75    69    68    2
    76    21    20   ar
    77   133   131   ar
    78   133   134   ar
    79     5     7    1
    80     5     2    1
    81    79    80    1
    82    79    82    1
    83    79    78    1
    84   131   130   ar
    85    59    58    1
    86    59    60    1
    87    47    46    2
    88     3     2    1
    89    80    81    2
    90   128   127    2
    91    83    82    1
    92    83    84   ar
    93    48    49    1
    94    48    45    1
    95    68    78   am
    96    68    67    1
    97    46    58   am
    98    46    45    1
    99   134   136   ar
   100   134   132   ar
   101     2     1    1
   102    61    60    2
   103   136   138   ar
   104    49    50   ar
   105    49    51   ar
   106    50    52   ar
   107    70    67    1
   108    70    71    1
   109   127   126    1
   110    54    51   ar
   111    54    56   ar
   112    51    53   ar
   113    67    66    1
   114   130   132   ar
   115   130   129    1
   116    72    71   ar
   117    72    74   ar
   118    45    44    1
   119    52    53   ar
   120    56    57   ar
   121    53    55   ar
   122    71    73   ar
   123   132   135   ar
   124    74    76   ar
   125   138   137   ar
   126    57    55   ar
   127   129   126    1
   128   126   125    1
   129    73    75   ar
   130    76    75   ar
   131    76    77    1
   132    39    41   ar
   133    39    38   ar
   134   135   137   ar
   135    41    43   ar
   136    37    38    1
   137    37    34    1
   138    38    40   ar
   139    43    42   ar
   140    36    35    2
   141    34    33    1
   142    34    35    1
   143    40    42   ar
