@<TRIPOS>MOLECULE
tmp/2oliA00.pdb
 112 109 0 0 0
SMALL
GASTEIGER

@<TRIPOS>ATOM
      1  N        -16.3830   10.8870   -5.9820 N.3     2  LEU2       -0.1245
      2  CA       -16.7610    9.5140   -5.6900 C.3     2  LEU2        0.1561
      3  C        -15.6580    8.7410   -4.9790 C.2     2  LEU2        0.2260
      4  O        -15.9360    7.7860   -4.2540 O.2     2  LEU2       -0.2867
      5  CB       -17.1950    8.8070   -6.9750 C.3     2  LEU2        0.0270
      6  CG       -18.6980    8.8920   -7.2840 C.3     2  LEU2        0.0019
      7  CD1      -19.2610   10.2600   -6.9110 C.3     2  LEU2        0.0001
      8  CD2      -18.9240    8.6040   -8.7600 C.3     2  LEU2        0.0001
      9  N        -16.1760    9.6300   -1.2720 N.3     5  PHE5       -0.1227
     10  CA       -17.4560    9.0740   -0.8500 C.3     5  PHE5        0.1736
     11  C        -17.3970    7.5570   -0.6610 C.2     5  PHE5        0.2596
     12  O        -17.9250    7.0320    0.3160 O.2     5  PHE5       -0.2718
     13  CB       -18.5420    9.4540   -1.8680 C.3     5  PHE5        0.0547
     14  CG       -19.9500    9.1510   -1.4100 C.ar    5  PHE5       -0.0202
     15  CD1      -20.3150    9.2980   -0.0730 C.ar    5  PHE5       -0.0042
     16  CD2      -20.9190    8.7600   -2.3260 C.ar    5  PHE5       -0.0042
     17  CE1      -21.6190    9.0610    0.3410 C.ar    5  PHE5       -0.0003
     18  CE2      -22.2280    8.5210   -1.9220 C.ar    5  PHE5       -0.0003
     19  CZ       -22.5790    8.6720   -0.5840 C.ar    5  PHE5       -0.0000
     20  N        -16.7550    6.8640   -1.5990 N.am    6  GLY6       -0.1957
     21  CA       -16.6320    5.4210   -1.5110 C.3     6  GLY6        0.1869
     22  C        -15.8360    4.9880   -0.2890 C.2     6  GLY6        0.2309
     23  O        -16.2110    4.0440    0.4030 O.2     6  GLY6       -0.2863
     24  N        -17.9480    5.4370    2.8280 N.3     9  ILE9       -0.1245
     25  CA       -18.9420    4.3720    2.9670 C.3     9  ILE9        0.1561
     26  C        -18.3490    3.0680    3.5040 C.2     9  ILE9        0.2260
     27  O        -18.9450    2.4120    4.3590 O.2     9  ILE9       -0.2867
     28  CB       -19.6300    4.0780    1.6160 C.3     9  ILE9        0.0252
     29  CG1      -20.4250    5.3060    1.1610 C.3     9  ILE9        0.0019
     30  CG2      -20.5390    2.8740    1.7450 C.3     9  ILE9        0.0019
     31  CD1      -21.0500    5.1580   -0.2240 C.3     9  ILE9        0.0001
     32  N        -18.7990    0.4890   -1.6040 N.3    17  ALA17      -0.1231
     33  CA       -19.7670    1.3500   -2.2990 C.3    17  ALA17       0.1694
     34  C        -20.3370    0.6190   -3.5040 C.2    17  ALA17       0.2591
     35  O        -21.5510    0.5140   -3.6790 O.2    17  ALA17      -0.2718
     36  CB       -19.0950    2.6340   -2.7390 C.3    17  ALA17       0.0304
     37  N        -19.4330    0.1430   -4.3500 N.am   18  ILE18      -0.1980
     38  CA       -19.7860   -0.6490   -5.5200 C.3    18  ILE18       0.1595
     39  C        -19.2830   -2.0090   -5.0520 C.2    18  ILE18       0.2287
     40  O        -18.1190   -2.1350   -4.6530 O.2    18  ILE18      -0.2864
     41  CB       -18.9810   -0.2270   -6.7680 C.3    18  ILE18       0.0276
     42  CG1      -19.1840    1.2650   -7.0460 C.3    18  ILE18       0.0022
     43  CG2      -19.4080   -1.0690   -7.9690 C.3    18  ILE18       0.0022
     44  CD1      -18.3820    1.7850   -8.2150 C.3    18  ILE18       0.0001
     45  N        -23.8610   -0.3650   -2.9020 N.3    21  TYR21      -0.1227
     46  CA       -24.6890    0.8340   -2.9610 C.3    21  TYR21       0.1736
     47  C        -24.7730    1.5300   -4.3160 C.2    21  TYR21       0.2596
     48  O        -25.2400    2.6640   -4.3860 O.2    21  TYR21      -0.2718
     49  CB       -24.1890    1.8500   -1.9250 C.3    21  TYR21       0.0548
     50  CG       -24.3860    1.4390   -0.4800 C.ar   21  TYR21      -0.0200
     51  CD1      -25.6500    1.4770    0.1090 C.ar   21  TYR21      -0.0009
     52  CD2      -23.3080    1.0180    0.3000 C.ar   21  TYR21      -0.0009
     53  CE1      -25.8380    1.1130    1.4400 C.ar   21  TYR21       0.0417
     54  CE2      -23.4830    0.6480    1.6290 C.ar   21  TYR21       0.0417
     55  CZ       -24.7530    0.6980    2.1940 C.ar   21  TYR21       0.1957
     56  OH       -24.9360    0.3270    3.5070 O.3    21  TYR21      -0.2866
     57  N        -24.3410    0.8800   -5.3900 N.am   22  SER22      -0.1952
     58  CA       -24.3910    1.5320   -6.6970 C.3    22  SER22       0.1924
     59  C        -25.6240    1.1570   -7.5210 C.2    22  SER22       0.2314
     60  O        -25.9490    1.8250   -8.5020 O.2    22  SER22      -0.2863
     61  CB       -23.1080    1.2380   -7.4830 C.3    22  SER22       0.2116
     62  OG       -22.8570   -0.1540   -7.5520 O.3    22  SER22      -0.2180
     63  N        -30.1160    4.7590   -5.1100 N.3    28  CYS28      -0.1221
     64  CA       -28.6900    4.5500   -4.9060 C.3    28  CYS28       0.1808
     65  C        -27.9970    4.2160   -6.2230 C.2    28  CYS28       0.2602
     66  O        -28.0680    3.0740   -6.7020 O.2    28  CYS28      -0.2717
     67  CB       -28.4420    3.4210   -3.9000 C.3    28  CYS28       0.0970
     68  SG       -29.1980    3.6670   -2.2600 S.3    28  CYS28      -0.0800
     69  N        -27.3020    5.1780   -6.8390 N.am   29  GLY29      -0.1942
     70  CA       -26.6250    4.9120   -8.1090 C.3    29  GLY29       0.2014
     71  C        -27.0300    5.9010   -9.2510 C.2    29  GLY29       0.2638
     72  O        -26.6790    7.0810   -9.2390 O.2    29  GLY29      -0.2714
     73  N        -27.7650    5.3500  -10.1950 N.am   30  TRP30      -0.1973
     74  CA       -28.3430    5.9440  -11.4180 C.3    30  TRP30       0.1640
     75  C        -29.0370    7.2530  -11.5450 C.2    30  TRP30       0.2290
     76  O        -29.0820    7.8020  -12.6330 O.2    30  TRP30      -0.2864
     77  CB       -29.4620    5.0810  -11.8790 C.3    30  TRP30       0.0576
     78  CG       -29.6160    5.0500  -13.3560 C.ar   30  TRP30       0.0006
     79  CD1      -28.6010    5.1370  -14.2640 C.ar   30  TRP30       0.0946
     80  CD2      -30.8300    4.9180  -14.1070 C.ar   30  TRP30       0.0152
     81  NE1      -29.0840    4.9550  -15.5070 N.ar   30  TRP30      -0.2442
     82  CE2      -30.4480    4.7850  -15.4440 C.ar   30  TRP30       0.0810
     83  CE3      -32.1960    4.8620  -13.8020 C.ar   30  TRP30       0.0012
     84  CZ2      -31.3530    4.5000  -16.4770 C.ar   30  TRP30       0.0191
     85  CZ3      -33.0990    4.6410  -14.8300 C.ar   30  TRP30       0.0001
     86  CH2      -32.6850    4.4470  -16.1530 C.ar   30  TRP30       0.0015
     87  N        -30.1680    7.5410    0.0240 N.3    44  CYS44      -0.1235
     88  CA       -29.7010    7.9110   -1.3100 C.3    44  CYS44       0.1677
     89  C        -30.5280    9.0310   -1.9210 C.2    44  CYS44       0.2270
     90  O        -29.9860    9.9110   -2.5900 O.2    44  CYS44      -0.2867
     91  CB       -29.6760    6.6780   -2.2250 C.3    44  CYS44       0.0956
     92  SG       -28.4490    5.4520   -1.6590 S.3    44  CYS44      -0.0801
     93  N        -19.2670   14.5950   -8.2270 N.3    60  LYS60      -0.1245
     94  CA       -18.5990   13.3780   -8.6550 C.3    60  LYS60       0.1561
     95  C        -17.1020   13.5050   -8.8870 C.2    60  LYS60       0.2260
     96  O        -16.3630   12.5600   -8.6520 O.2    60  LYS60      -0.2867
     97  CB       -19.2300   12.8480   -9.9410 C.3    60  LYS60       0.0271
     98  CG       -20.7080   12.5170   -9.8560 C.3    60  LYS60       0.0035
     99  CD       -21.1510   11.7810  -11.1250 C.3    60  LYS60       0.0206
    100  CE       -22.5900   11.3030  -11.0040 C.3    60  LYS60       0.1093
    101  NZ       -22.9120   10.2150  -11.9650 N.3    60  LYS60      -0.1314
    102  N        -26.3980    5.6750    6.1330 N.3    96  PHE96      -0.1241
    103  CA       -26.2040    4.2740    5.7570 C.3    96  PHE96       0.1605
    104  C        -25.8900    3.4390    6.9940 C.2    96  PHE96       0.2264
    105  O        -26.4350    2.3560    7.1800 O.2    96  PHE96      -0.2867
    106  CB       -25.0410    4.1130    4.7600 C.3    96  PHE96       0.0534
    107  CG       -25.3510    4.5850    3.3640 C.ar   96  PHE96      -0.0203
    108  CD1      -26.6450    4.5140    2.8590 C.ar   96  PHE96      -0.0042
    109  CD2      -24.3340    5.0580    2.5380 C.ar   96  PHE96      -0.0042
    110  CE1      -26.9210    4.9080    1.5560 C.ar   96  PHE96      -0.0003
    111  CE2      -24.6000    5.4530    1.2290 C.ar   96  PHE96      -0.0003
    112  CZ       -25.8920    5.3790    0.7370 C.ar   96  PHE96      -0.0000
@<TRIPOS>BOND
     1    84    86   ar
     2    84    82   ar
     3    86    85   ar
     4    81    82   ar
     5    81    79   ar
     6    82    80   ar
     7    85    83   ar
     8    79    78   ar
     9    80    83   ar
    10    80    78   ar
    11    78    77    1
    12    76    75    2
    13   101   100    1
    14    77    74    1
    15    75    74    1
    16    74    73    1
    17    99   100    1
    18    99    98    1
    19    73    71   am
    20    97    98    1
    21    97    94    1
    22    71    72    2
    23    71    70    1
    24    95    94    1
    25    95    96    2
    26     8     6    1
    27    94    93    1
    28    60    59    2
    29    44    42    1
    30    70    69    1
    31    43    41    1
    32    62    61    1
    33    59    58    1
    34    61    58    1
    35     6     5    1
    36     6     7    1
    37    42    41    1
    38     5     2    1
    39    69    65   am
    40    41    38    1
    41    66    65    2
    42    58    57    1
    43    65    64    1
    44     1     2    1
    45     2     3    1
    46    38    39    1
    47    38    37    1
    48    57    47   am
    49    63    64    1
    50    39    40    2
    51     3     4    2
    52    64    67    1
    53    48    47    2
    54    37    34   am
    55    47    46    1
    56    67    68    1
    57    35    34    2
    58    34    33    1
    59    46    45    1
    60    46    49    1
    61    36    33    1
    62    90    89    2
    63    16    18   ar
    64    16    14   ar
    65    33    32    1
    66    68    92    1
    67    91    92    1
    68    91    88    1
    69    49    50    1
    70    18    19   ar
    71    89    88    1
    72    13    14    1
    73    13    10    1
    74    20    21    1
    75    20    11   am
    76    21    22    1
    77    14    15   ar
    78    88    87    1
    79     9    10    1
    80    10    11    1
    81    11    12    2
    82    19    17   ar
    83    50    51   ar
    84    50    52   ar
    85    22    23    2
    86    31    29    1
    87    15    17   ar
    88    51    53   ar
    89    52    54   ar
    90   112   111   ar
    91   112   110   ar
    92    29    28    1
    93   111   109   ar
    94    53    55   ar
    95   110   108   ar
    96    28    30    1
    97    28    25    1
    98    54    55   ar
    99    55    56    1
   100   109   107   ar
   101    24    25    1
   102   108   107   ar
   103    25    26    1
   104   107   106    1
   105    26    27    2
   106   106   103    1
   107   103   102    1
   108   103   104    1
   109   104   105    2
