@<TRIPOS>MOLECULE
tmp/2olkC00.pdb
 77 73 0 0 0
SMALL
GASTEIGER

@<TRIPOS>ATOM
      1  N         21.1830  -19.5480   35.9640 N.3    13  PHE13      -0.1241
      2  CA        20.2260  -20.0920   34.9980 C.3    13  PHE13       0.1605
      3  C         20.4390  -19.2670   33.7380 C.2    13  PHE13       0.2264
      4  O         19.6520  -18.3690   33.4290 O.2    13  PHE13      -0.2867
      5  CB        18.7920  -19.9080   35.4910 C.3    13  PHE13       0.0534
      6  CG        18.4460  -20.7550   36.6770 C.ar   13  PHE13      -0.0203
      7  CD1       18.4540  -22.1410   36.5800 C.ar   13  PHE13      -0.0042
      8  CD2       18.1070  -20.1670   37.8900 C.ar   13  PHE13      -0.0042
      9  CE1       18.1270  -22.9300   37.6780 C.ar   13  PHE13      -0.0003
     10  CE2       17.7780  -20.9470   38.9930 C.ar   13  PHE13      -0.0003
     11  CZ        17.7880  -22.3300   38.8890 C.ar   13  PHE13      -0.0000
     12  N         21.1440  -15.3550   34.1090 N.3    16  LEU16      -0.1245
     13  CA        20.5740  -15.1400   35.4320 C.3    16  LEU16       0.1561
     14  C         21.4500  -15.8230   36.4780 C.2    16  LEU16       0.2260
     15  O         21.5560  -17.0480   36.5040 O.2    16  LEU16      -0.2867
     16  CB        19.1620  -15.7310   35.5040 C.3    16  LEU16       0.0270
     17  CG        17.9710  -14.8370   35.8670 C.3    16  LEU16       0.0019
     18  CD1       16.7900  -15.7260   36.2490 C.3    16  LEU16       0.0001
     19  CD2       18.3230  -13.9240   37.0290 C.3    16  LEU16       0.0001
     20  N         21.4450  -16.4490   40.0910 N.3    18  VAL18      -0.1245
     21  CA        20.6260  -16.4540   41.3050 C.3    18  VAL18       0.1561
     22  C         21.4210  -16.3270   42.5960 C.2    18  VAL18       0.2260
     23  O         21.0670  -15.5420   43.4720 O.2    18  VAL18      -0.2867
     24  CB        19.7800  -17.7330   41.3830 C.3    18  VAL18       0.0252
     25  CG1       18.9570  -17.7340   42.6580 C.3    18  VAL18       0.0019
     26  CG2       18.8780  -17.8260   40.1630 C.3    18  VAL18       0.0019
     27  N         12.0940  -10.7530   47.9020 N.3    38  SER38      -0.1202
     28  CA        11.7850  -11.8560   47.0140 C.3    38  SER38       0.2020
     29  C         12.8070  -11.8410   45.8830 C.2    38  SER38       0.2619
     30  O         13.2730  -10.7750   45.4740 O.2    38  SER38      -0.2717
     31  CB        10.3680  -11.7030   46.4570 C.3    38  SER38       0.2103
     32  OG         9.4150  -11.7110   47.5110 O.3    38  SER38      -0.2182
     33  N         13.1610  -13.0250   45.3920 N.am   39  GLY39      -0.1942
     34  CA        14.1240  -13.1290   44.3100 C.3    39  GLY39       0.2014
     35  C         15.5800  -13.0600   44.7380 C.2    39  GLY39       0.2640
     36  O         16.4640  -12.9560   43.8930 O.2    39  GLY39      -0.2714
     37  N         15.8390  -13.1270   46.0400 N.am   40  SER40      -0.1935
     38  CA        17.2080  -13.0570   46.5520 C.3    40  SER40       0.2055
     39  C         17.9390  -14.3900   46.4760 C.2    40  SER40       0.2644
     40  O         19.1640  -14.4380   46.5690 O.2    40  SER40      -0.2714
     41  CB        17.2130  -12.5760   48.0070 C.3    40  SER40       0.2130
     42  OG        16.5830  -11.3170   48.1270 O.3    40  SER40      -0.2179
     43  N         17.1830  -15.4710   46.3280 N.am   41  GLY41      -0.1939
     44  CA        17.7900  -16.7850   46.2450 C.3    41  GLY41       0.2014
     45  C         17.7290  -17.5850   47.5350 C.2    41  GLY41       0.2639
     46  O         18.4290  -18.5870   47.6620 O.2    41  GLY41      -0.2714
     47  N         16.9000  -17.1510   48.4870 N.am   42  LYS42      -0.1963
     48  CA        16.7590  -17.8430   49.7680 C.3    42  LYS42       0.1728
     49  C         16.3300  -19.3060   49.6110 C.2    42  LYS42       0.2617
     50  O         16.9260  -20.2030   50.2140 O.2    42  LYS42      -0.2715
     51  CB        15.7520  -17.1100   50.6630 C.3    42  LYS42       0.0311
     52  CG        16.1430  -15.6710   50.9830 C.3    42  LYS42       0.0038
     53  CD        15.1810  -14.9870   51.9690 C.3    42  LYS42       0.0206
     54  CE        13.7720  -14.8090   51.3940 C.3    42  LYS42       0.1093
     55  NZ        13.7270  -13.8790   50.2360 N.3    42  LYS42      -0.1314
     56  N         15.2960  -19.5450   48.8090 N.am   43  SER43      -0.1936
     57  CA        14.7940  -20.9010   48.5910 C.3    43  SER43       0.2055
     58  C         15.7680  -21.7360   47.7720 C.2    43  SER43       0.2643
     59  O         16.0040  -22.9060   48.0750 O.2    43  SER43      -0.2714
     60  CB        13.4370  -20.8610   47.8910 C.3    43  SER43       0.2130
     61  OG        12.5070  -20.1310   48.6690 O.3    43  SER43      -0.2179
     62  N         16.3350  -21.1380   46.7340 N.am   44  THR44      -0.1950
     63  CA        17.2960  -21.8480   45.9020 C.3    44  THR44       0.1897
     64  C         18.4730  -22.3080   46.7690 C.2    44  THR44       0.2313
     65  O         18.9570  -23.4290   46.6250 O.2    44  THR44      -0.2863
     66  CB        17.7780  -20.9410   44.7550 C.3    44  THR44       0.1794
     67  OG1       16.6700  -20.6640   43.8920 O.3    44  THR44      -0.2208
     68  CG2       18.8790  -21.6040   43.9550 C.3    44  THR44       0.0378
     69  N         18.8960  -29.0260   44.2720 N.3    53  GLU53      -0.1245
     70  CA        19.3430  -28.1250   43.2300 C.3    53  GLU53       0.1567
     71  C         20.8420  -28.3230   43.0890 C.2    53  GLU53       0.2260
     72  O         21.5360  -28.5100   44.0880 O.2    53  GLU53      -0.2867
     73  CB        19.0670  -26.6780   43.6540 C.3    53  GLU53       0.0388
     74  CG        18.9710  -25.6930   42.5150 C.3    53  GLU53       0.1160
     75  CD        17.6010  -25.7040   41.8800 C.2    53  GLU53       0.3649
     76  OE1       16.6290  -25.3300   42.5720 O.co2  53  GLU53      -0.2457
     77  OE2       17.4950  -26.0920   40.6960 O.co2  53  GLU53      -0.2457
@<TRIPOS>BOND
     1     4     3    2
     2     3     2    1
     3    12    13    1
     4     2     5    1
     5     2     1    1
     6    13    16    1
     7    13    14    1
     8     5     6    1
     9    16    17    1
    10    17    18    1
    11    17    19    1
    12    14    15    2
    13     7     6   ar
    14     7     9   ar
    15     6     8   ar
    16     9    11   ar
    17     8    10   ar
    18    11    10   ar
    19    20    21    1
    20    26    24    1
    21    77    75   ar
    22    21    24    1
    23    21    22    1
    24    24    25    1
    25    75    74    1
    26    75    76   ar
    27    74    73    1
    28    22    23    2
    29    71    70    1
    30    71    72    2
    31    70    73    1
    32    70    69    1
    33    67    66    1
    34    36    35    2
    35    68    66    1
    36    34    35    1
    37    34    33    1
    38    35    37   am
    39    66    63    1
    40    33    29   am
    41    30    29    2
    42    29    28    1
    43    63    62    1
    44    63    64    1
    45    37    38    1
    46    44    43    1
    47    44    45    1
    48    43    39   am
    49    31    28    1
    50    31    32    1
    51    39    38    1
    52    39    40    2
    53    38    41    1
    54    65    64    2
    55    62    58   am
    56    28    27    1
    57    45    46    2
    58    45    47   am
    59    58    59    2
    60    58    57    1
    61    60    57    1
    62    60    61    1
    63    41    42    1
    64    47    48    1
    65    57    56    1
    66    56    49   am
    67    49    48    1
    68    49    50    2
    69    48    51    1
    70    55    54    1
    71    51    52    1
    72    52    53    1
    73    54    53    1
