@<TRIPOS>MOLECULE
tmp/2olvA00.pdb
 222 213 0 0 0
SMALL
GASTEIGER

@<TRIPOS>ATOM
      1  N        -23.5880   95.0510   -8.7430 N.3    47  GLU47      -0.1245
      2  CA       -24.4500   94.6440   -9.8740 C.3    47  GLU47       0.1567
      3  C        -25.8190   95.3120   -9.9040 C.2    47  GLU47       0.2260
      4  O        -26.2150   95.8290  -10.9440 O.2    47  GLU47      -0.2867
      5  CB       -24.6580   93.1260   -9.8890 C.3    47  GLU47       0.0388
      6  CG       -23.4160   92.3040  -10.2140 C.3    47  GLU47       0.1160
      7  CD       -22.7330   92.7060  -11.5240 C.2    47  GLU47       0.3649
      8  OE1      -22.9430   92.0060  -12.5340 O.co2  47  GLU47      -0.2457
      9  OE2      -21.9880   93.7100  -11.5480 O.co2  47  GLU47      -0.2457
     10  N        -25.0380   98.8620  -22.1110 N.3    69  GLY69      -0.1210
     11  CA       -25.1790   99.7380  -20.9430 C.3    69  GLY69       0.1956
     12  C        -25.0530   99.0070  -19.6080 C.2    69  GLY69       0.2612
     13  O        -23.9390   98.6920  -19.1700 O.2    69  GLY69      -0.2717
     14  N        -26.1960   98.7480  -18.9630 N.am   70  ALA70      -0.1965
     15  CA       -26.2530   98.0320  -17.6740 C.3    70  ALA70       0.1728
     16  C        -27.6170   97.3390  -17.4660 C.2    70  ALA70       0.2616
     17  O        -28.6160   97.6720  -18.1230 O.2    70  ALA70      -0.2715
     18  CB       -25.9420   98.9920  -16.5130 C.3    70  ALA70       0.0334
     19  N        -27.6490   96.3730  -16.5490 N.am   71  SER71      -0.1950
     20  CA       -28.8620   95.5760  -16.3060 C.3    71  SER71       0.1924
     21  C        -28.9610   95.0370  -14.8640 C.2    71  SER71       0.2314
     22  O        -28.0760   95.2630  -14.0430 O.2    71  SER71      -0.2863
     23  CB       -28.9660   94.4360  -17.3310 C.3    71  SER71       0.2116
     24  OG       -28.1550   93.3260  -16.9860 O.3    71  SER71      -0.2180
     25  N        -33.2240   90.3400  -14.5320 N.3    75  GLN75      -0.1231
     26  CA       -33.0830   90.1390  -15.9670 C.3    75  GLN75       0.1698
     27  C        -31.7410   89.4520  -16.2490 C.2    75  GLN75       0.2592
     28  O        -31.6500   88.5640  -17.0960 O.2    75  GLN75      -0.2718
     29  CB       -33.2880   91.4640  -16.7490 C.3    75  GLN75       0.0381
     30  CG       -32.0400   92.2640  -17.1420 C.3    75  GLN75       0.0905
     31  CD       -32.3760   93.5770  -17.8670 C.2    75  GLN75       0.2608
     32  OE1      -33.1670   94.3840  -17.3800 O.2    75  GLN75      -0.2717
     33  NE2      -31.7570   93.7960  -19.0260 N.am   75  GLN75      -0.0878
     34  N        -30.7160   89.8400  -15.5020 N.am   76  GLN76      -0.1979
     35  CA       -29.4020   89.2160  -15.6110 C.3    76  GLN76       0.1601
     36  C        -29.5690   87.6980  -15.5180 C.2    76  GLN76       0.2287
     37  O        -28.9400   86.9540  -16.2690 O.2    76  GLN76      -0.2864
     38  CB       -28.4550   89.7510  -14.5090 C.3    76  GLN76       0.0394
     39  CG       -26.9560   89.8050  -14.8810 C.3    76  GLN76       0.0908
     40  CD       -26.0900   90.5340  -13.8400 C.2    76  GLN76       0.2608
     41  OE1      -25.0320   90.0410  -13.4410 O.2    76  GLN76      -0.2717
     42  NE2      -26.5320   91.7120  -13.4130 N.am   76  GLN76      -0.0878
     43  N        -31.4380   86.1210  -18.7660 N.3    79  LYS79      -0.1231
     44  CA       -30.4060   85.8750  -19.7780 C.3    79  LYS79       0.1693
     45  C        -29.7360   84.5210  -19.5890 C.2    79  LYS79       0.2592
     46  O        -29.4340   83.8310  -20.5590 O.2    79  LYS79      -0.2718
     47  CB       -29.3390   86.9840  -19.7200 C.3    79  LYS79       0.0285
     48  CG       -28.0360   86.6880  -20.4810 C.3    79  LYS79       0.0035
     49  CD       -27.1180   87.9070  -20.5310 C.3    79  LYS79       0.0206
     50  CE       -26.5610   88.2630  -19.1530 C.3    79  LYS79       0.1093
     51  NZ       -25.4070   89.2120  -19.2120 N.3    79  LYS79      -0.1314
     52  N        -29.4940   84.1580  -18.3360 N.am   80  ASP80      -0.1974
     53  CA       -28.8370   82.8990  -18.0120 C.3    80  ASP80       0.1709
     54  C        -29.8200   81.7170  -17.8790 C.2    80  ASP80       0.2293
     55  O        -29.4000   80.5930  -17.6080 O.2    80  ASP80      -0.2864
     56  CB       -27.9530   83.0790  -16.7770 C.3    80  ASP80       0.1436
     57  CG       -26.6960   83.8960  -17.0770 C.2    80  ASP80       0.3671
     58  OD1      -25.8000   83.3690  -17.7640 O.co2  80  ASP80      -0.2456
     59  OD2      -26.5980   85.0580  -16.6310 O.co2  80  ASP80      -0.2456
     60  N        -26.9410   83.3670  -27.9630 N.3    85  GLN85      -0.1245
     61  CA       -25.6730   84.1170  -27.9690 C.3    85  GLN85       0.1566
     62  C        -25.7120   85.3660  -28.8920 C.2    85  GLN85       0.2260
     63  O        -24.8100   86.2110  -28.8210 O.2    85  GLN85      -0.2867
     64  CB       -24.4900   83.1920  -28.3240 C.3    85  GLN85       0.0367
     65  CG       -23.4830   82.9490  -27.1710 C.3    85  GLN85       0.0905
     66  CD       -24.0620   82.1970  -25.9660 C.2    85  GLN85       0.2608
     67  OE1      -25.1390   81.5990  -26.0350 O.2    85  GLN85      -0.2717
     68  NE2      -23.3290   82.2210  -24.8550 N.am   85  GLN85      -0.0878
     69  N        -27.5690   88.9710  -29.6110 N.3    87  LYS87      -0.1245
     70  CA       -28.1820   89.9510  -28.7140 C.3    87  LYS87       0.1561
     71  C        -28.8940   91.0640  -29.4980 C.2    87  LYS87       0.2260
     72  O        -30.0540   90.8870  -29.8840 O.2    87  LYS87      -0.2867
     73  CB       -27.1440   90.4940  -27.7150 C.3    87  LYS87       0.0271
     74  CG       -25.7040   90.4660  -28.2110 C.3    87  LYS87       0.0035
     75  CD       -24.7510   91.0050  -27.1680 C.3    87  LYS87       0.0206
     76  CE       -23.3150   90.7170  -27.5580 C.3    87  LYS87       0.1093
     77  NZ       -22.3500   91.2040  -26.5410 N.3    87  LYS87      -0.1314
     78  N        -32.1910   89.5710  -27.6700 N.3    91  ARG91      -0.1231
     79  CA       -32.0510   88.9800  -26.3480 C.3    91  ARG91       0.1694
     80  C        -32.7100   89.9050  -25.3300 C.2    91  ARG91       0.2591
     81  O        -33.5250   89.4620  -24.5210 O.2    91  ARG91      -0.2718
     82  CB       -30.5710   88.8050  -26.0110 C.3    91  ARG91       0.0321
     83  CG       -30.3040   88.1740  -24.6610 C.3    91  ARG91       0.0489
     84  CD       -28.8470   88.3010  -24.2760 C.3    91  ARG91       0.2205
     85  NE       -27.9610   87.6410  -25.2300 N.pl3  91  ARG91      -0.0865
     86  CZ       -26.6340   87.6150  -25.1280 C.cat  91  ARG91       0.5346
     87  NH1      -26.0180   88.2070  -24.1120 N.pl3  91  ARG91       0.1354
     88  NH2      -25.9160   86.9900  -26.0500 N.pl3  91  ARG91       0.1354
     89  N        -32.3680   91.1920  -25.4110 N.am   92  LYS92      -0.1980
     90  CA       -32.8940   92.2270  -24.5060 C.3    92  LYS92       0.1596
     91  C        -34.4230   92.3760  -24.5640 C.2    92  LYS92       0.2287
     92  O        -35.0480   92.7830  -23.5830 O.2    92  LYS92      -0.2864
     93  CB       -32.2490   93.5900  -24.8090 C.3    92  LYS92       0.0298
     94  CG       -30.7150   93.6180  -24.7340 C.3    92  LYS92       0.0038
     95  CD       -30.1230   94.9410  -25.2550 C.3    92  LYS92       0.0206
     96  CE       -28.6720   94.7830  -25.7300 C.3    92  LYS92       0.1093
     97  NZ       -28.0690   96.0680  -26.1720 N.3    92  LYS92      -0.1314
     98  N        -35.6710   89.0800  -22.7390 N.3    95  GLU95      -0.1245
     99  CA       -35.1010   89.3820  -21.4230 C.3    95  GLU95       0.1567
    100  C        -36.0050   90.3150  -20.6060 C.2    95  GLU95       0.2260
    101  O        -36.2940   90.0490  -19.4350 O.2    95  GLU95      -0.2867
    102  CB       -33.7120   90.0220  -21.6170 C.3    95  GLU95       0.0388
    103  CG       -32.9590   90.4230  -20.3450 C.3    95  GLU95       0.1160
    104  CD       -31.5740   91.0270  -20.6290 C.2    95  GLU95       0.3649
    105  OE1      -31.4740   91.9320  -21.4870 O.co2  95  GLU95      -0.2457
    106  OE2      -30.5860   90.6090  -19.9780 O.co2  95  GLU95      -0.2457
    107  N        -29.3010   83.4150   -8.8900 N.3   115  TYR115     -0.1241
    108  CA       -28.1450   84.1820   -9.3270 C.3   115  TYR115      0.1605
    109  C        -26.9050   83.5810   -8.6740 C.2   115  TYR115      0.2264
    110  O        -26.0300   83.0480   -9.3620 O.2   115  TYR115     -0.2867
    111  CB       -28.2980   85.6630   -8.9570 C.3   115  TYR115      0.0534
    112  CG       -27.2280   86.6010   -9.4870 C.ar  115  TYR115     -0.0201
    113  CD1      -26.2930   87.1860   -8.6320 C.ar  115  TYR115     -0.0009
    114  CD2      -27.1750   86.9400  -10.8360 C.ar  115  TYR115     -0.0009
    115  CE1      -25.3050   88.0810   -9.1220 C.ar  115  TYR115      0.0417
    116  CE2      -26.2010   87.8300  -11.3320 C.ar  115  TYR115      0.0417
    117  CZ       -25.2740   88.3950  -10.4720 C.ar  115  TYR115      0.1957
    118  OH       -24.3230   89.2640  -10.9660 O.3   115  TYR115     -0.2866
    119  N        -24.2970   81.7600  -11.9690 N.3   119  ILE119     -0.1231
    120  CA       -23.3160   82.5860  -12.6990 C.3   119  ILE119      0.1692
    121  C        -21.8720   82.0400  -12.6940 C.2   119  ILE119      0.2592
    122  O        -21.4930   81.2720  -11.8020 O.2   119  ILE119     -0.2718
    123  CB       -23.3160   84.0410  -12.2070 C.3   119  ILE119      0.0266
    124  CG1      -22.8930   84.1280  -10.7410 C.3   119  ILE119      0.0019
    125  CG2      -24.6950   84.6750  -12.4030 C.3   119  ILE119      0.0020
    126  CD1      -22.3570   85.5280  -10.3670 C.3   119  ILE119      0.0001
    127  N        -21.0800   82.4620  -13.6890 N.am  120  TYR120     -0.1976
    128  CA       -19.7620   81.8630  -13.9840 C.3   120  TYR120      0.1639
    129  C        -18.5860   82.6290  -13.3940 C.2   120  TYR120      0.2290
    130  O        -18.5880   83.8530  -13.3880 O.2   120  TYR120     -0.2864
    131  CB       -19.5440   81.7720  -15.4930 C.3   120  TYR120      0.0560
    132  CG       -18.3030   80.9900  -15.8660 C.ar  120  TYR120     -0.0198
    133  CD1      -17.3020   81.5430  -16.6560 C.ar  120  TYR120     -0.0009
    134  CD2      -18.1320   79.6920  -15.4130 C.ar  120  TYR120     -0.0009
    135  CE1      -16.1630   80.8100  -16.9900 C.ar  120  TYR120      0.0417
    136  CE2      -17.0100   78.9580  -15.7370 C.ar  120  TYR120      0.0417
    137  CZ       -16.0270   79.5120  -16.5210 C.ar  120  TYR120      0.1957
    138  OH       -14.9210   78.7390  -16.8160 O.3   120  TYR120     -0.2866
    139  N        -15.0200   81.6450  -14.0880 N.3   122  SER122     -0.1202
    140  CA       -13.7840   81.1660  -14.7450 C.3   122  SER122      0.2020
    141  C        -13.2870   79.8160  -14.2170 C.2   122  SER122      0.2619
    142  O        -13.6580   79.3840  -13.1220 O.2   122  SER122     -0.2717
    143  CB       -12.6560   82.1970  -14.6520 C.3   122  SER122      0.2103
    144  OG       -11.4180   81.6040  -14.9880 O.3   122  SER122     -0.2182
    145  N        -12.4430   79.1550  -15.0140 N.am  123  ASP123     -0.1959
    146  CA       -11.9610   77.7880  -14.7320 C.3   123  ASP123      0.1840
    147  C        -13.0970   76.8250  -14.3550 C.2   123  ASP123      0.2622
    148  O        -12.9460   75.9680  -13.4670 O.2   123  ASP123     -0.2715
    149  CB       -10.8700   77.7980  -13.6500 C.3   123  ASP123      0.1450
    150  CG        -9.5780   78.4830  -14.1110 C.2   123  ASP123      0.3671
    151  OD1       -8.9890   79.2200  -13.2930 O.co2 123  ASP123     -0.2456
    152  OD2       -9.1390   78.2880  -15.2730 O.co2 123  ASP123     -0.2456
    153  N        -14.2370   76.9600  -15.0330 N.am  124  GLY124     -0.1954
    154  CA       -15.3580   76.0290  -14.8430 C.3   124  GLY124      0.1869
    155  C        -16.1990   76.2270  -13.5850 C.2   124  GLY124      0.2309
    156  O        -17.1660   75.4820  -13.3650 O.2   124  GLY124     -0.2863
    157  N        -17.7030   87.8690  -11.9370 N.3   155  PRO155     -0.2102
    158  CA       -18.6630   87.4650  -12.9770 C.3   155  PRO155      0.1504
    159  C        -18.9650   88.4870  -14.0710 C.2   155  PRO155      0.2576
    160  O        -19.7560   88.1840  -14.9590 O.2   155  PRO155     -0.2718
    161  CB       -19.9510   87.1880  -12.1850 C.3   155  PRO155      0.0282
    162  CG       -19.5170   87.0420  -10.7670 C.3   155  PRO155      0.0208
    163  CD       -18.3290   87.9170  -10.6080 C.3   155  PRO155      0.0893
    164  N        -18.3720   89.6760  -14.0190 N.am  156  GLN156     -0.1966
    165  CA       -18.5620   90.6540  -15.0890 C.3   156  GLN156      0.1733
    166  C        -17.8280   90.2400  -16.3730 C.2   156  GLN156      0.2616
    167  O        -18.4220   90.2380  -17.4590 O.2   156  GLN156     -0.2715
    168  CB       -18.1040   92.0300  -14.6270 C.3   156  GLN156      0.0408
    169  CG       -18.2300   93.1080  -15.6610 C.3   156  GLN156      0.0908
    170  CD       -17.8040   94.4530  -15.1210 C.2   156  GLN156      0.2608
    171  OE1      -16.6090   94.7300  -14.9710 O.2   156  GLN156     -0.2717
    172  NE2      -18.7770   95.3020  -14.8260 N.am  156  GLN156     -0.0878
    173  N        -16.5410   89.9170  -16.2480 N.am  157  VAL157     -0.1964
    174  CA       -15.7660   89.3560  -17.3580 C.3   157  VAL157      0.1712
    175  C        -14.7990   88.3220  -16.7850 C.2   157  VAL157      0.2458
    176  O        -13.5860   88.5110  -16.8110 O.2   157  VAL157     -0.2730
    177  CB       -15.0260   90.4580  -18.1580 C.3   157  VAL157      0.0289
    178  CG1      -15.9810   91.5850  -18.5070 C.3   157  VAL157      0.0023
    179  CG2      -13.8500   91.0040  -17.3880 C.3   157  VAL157      0.0023
    180  N        -15.3450   87.2210  -16.2570 N.am  158  PRO158     -0.2716
    181  CA       -14.5790   86.2660  -15.4560 C.3   158  PRO158      0.1536
    182  C        -13.1830   86.0000  -16.0070 C.2   158  PRO158      0.2599
    183  O        -12.1930   86.3310  -15.3500 O.2   158  PRO158     -0.2715
    184  CB       -15.4330   84.9900  -15.4800 C.3   158  PRO158      0.0310
    185  CG       -16.7380   85.3710  -16.0940 C.3   158  PRO158      0.0237
    186  CD       -16.7510   86.8290  -16.3990 C.3   158  PRO158      0.0939
    187  N        -13.1120   85.4460  -17.2160 N.am  159  ASN159     -0.1959
    188  CA       -11.8380   85.0400  -17.8050 C.3   159  ASN159      0.1819
    189  C        -10.8190   86.1990  -17.8130 C.2   159  ASN159      0.2621
    190  O         -9.6550   86.0070  -17.4550 O.2   159  ASN159     -0.2715
    191  CB       -12.0600   84.4340  -19.2050 C.3   159  ASN159      0.1195
    192  CG       -12.8540   83.1150  -19.1630 C.2   159  ASN159      0.2630
    193  OD1      -12.7960   82.3690  -18.1870 O.2   159  ASN159     -0.2716
    194  ND2      -13.5930   82.8300  -20.2300 N.am  159  ASN159     -0.0877
    195  N        -11.2680   87.4010  -18.1750 N.am  160  ASN160     -0.1972
    196  CA       -10.4050   88.5920  -18.1260 C.3   160  ASN160      0.1688
    197  C         -9.9710   89.0050  -16.7080 C.2   160  ASN160      0.2292
    198  O         -8.9220   89.6280  -16.5440 O.2   160  ASN160     -0.2864
    199  CB       -11.0610   89.7840  -18.8430 C.3   160  ASN160      0.1181
    200  CG       -10.4280   90.0720  -20.1970 C.2   160  ASN160      0.2629
    201  OD1      -10.1970   89.1610  -20.9920 O.2   160  ASN160     -0.2716
    202  ND2      -10.1420   91.3480  -20.4620 N.am  160  ASN160     -0.0877
    203  N         -5.8090   73.2870  -13.2140 N.3   211  ARG211     -0.1231
    204  CA        -7.0180   74.1090  -13.3960 C.3   211  ARG211      0.1694
    205  C         -7.8390   73.7790  -14.6580 C.2   211  ARG211      0.2591
    206  O         -8.9550   74.2730  -14.8290 O.2   211  ARG211     -0.2718
    207  CB        -6.6260   75.5810  -13.4210 C.3   211  ARG211      0.0321
    208  CG        -5.8400   76.0200  -12.1890 C.3   211  ARG211      0.0489
    209  CD        -5.4560   77.4950  -12.2390 C.3   211  ARG211      0.2205
    210  NE        -5.1240   77.9310  -13.5980 N.pl3 211  ARG211     -0.0865
    211  CZ        -5.6210   79.0050  -14.2120 C.cat 211  ARG211      0.5346
    212  NH1       -6.4720   79.8230  -13.6050 N.pl3 211  ARG211      0.1354
    213  NH2       -5.2370   79.2780  -15.4500 N.pl3 211  ARG211      0.1354
    214  N         -7.2700   72.9720  -15.5480 N.am  212  GLN212     -0.1979
    215  CA        -8.0190   72.3670  -16.6450 C.3   212  GLN212      0.1601
    216  C         -8.2270   70.8780  -16.3700 C.2   212  GLN212      0.2287
    217  O         -8.8160   70.1690  -17.1920 O.2   212  GLN212     -0.2864
    218  CB        -7.2690   72.5670  -17.9600 C.3   212  GLN212      0.0394
    219  CG        -6.9270   74.0280  -18.2690 C.3   212  GLN212      0.0908
    220  CD        -5.5370   74.2010  -18.8720 C.2   212  GLN212      0.2608
    221  OE1       -4.6460   73.3760  -18.6620 O.2   212  GLN212     -0.2717
    222  NE2       -5.3420   75.2950  -19.6120 N.am  212  GLN212     -0.0878
@<TRIPOS>BOND
     1    72    71    2
     2    69    70    1
     3    71    70    1
     4    62    63    2
     5    62    61    1
     6    70    73    1
     7    64    61    1
     8    64    65    1
     9    74    73    1
    10    74    75    1
    11    61    60    1
    12    78    79    1
    13    76    75    1
    14    76    77    1
    15    65    66    1
    16    79    82    1
    17    79    80    1
    18    97    96    1
    19    88    86    1
    20    67    66    2
    21    82    83    1
    22    66    68   am
    23    96    95    1
    24    89    80   am
    25    89    90    1
    26    80    81    2
    27    95    94    1
    28    85    86    2
    29    85    84    1
    30    86    87    1
    31    93    94    1
    32    93    90    1
    33    83    84    1
    34    91    90    1
    35    91    92    2
    36    98    99    1
    37    10    11    1
    38   102    99    1
    39   102   103    1
    40   105   104   ar
    41    99   100    1
    42   201   200    2
    43    11    12    1
    44   104   103    1
    45   104   106   ar
    46   100   101    2
    47    46    45    2
    48    49    48    1
    49    49    50    1
    50    48    47    1
    51   202   200   am
    52   194   192   am
    53   200   199    1
    54    44    47    1
    55    44    45    1
    56    44    43    1
    57   222   220   am
    58    12    13    2
    59    12    14   am
    60    45    52   am
    61    51    50    1
    62   191   192    1
    63   191   188    1
    64   192   193    2
    65    33    31   am
    66    14    15    1
    67   220   221    2
    68   220   219    1
    69   199   196    1
    70   178   177    1
    71    52    53    1
    72   219   218    1
    73   195   196    1
    74   195   189   am
    75   177   179    1
    76   177   174    1
    77   196   197    1
    78    17    16    2
    79    53    54    1
    80    53    56    1
    81   218   215    1
    82    54    55    2
    83    31    32    2
    84    31    30    1
    85   189   188    1
    86   189   190    2
    87   188   187    1
    88    58    57   ar
    89    15    16    1
    90    15    18    1
    91    16    19   am
    92   167   166    2
    93   174   175    1
    94   174   173    1
    95    23    24    1
    96    23    20    1
    97   187   182   am
    98   217   216    2
    99    30    29    1
   100    28    27    2
   101    57    56    1
   102    57    59   ar
   103   135   133   ar
   104   135   137   ar
   105   138   137    1
   106   176   175    2
   107   175   180   am
   108    29    26    1
   109   197   198    2
   110   133   132   ar
   111   215   216    1
   112   215   214    1
   113    19    20    1
   114   137   136   ar
   115   186   180    1
   116   186   185    1
   117   166   173   am
   118   166   165    1
   119    20    21    1
   120    37    36    2
   121   180   181    1
   122    27    26    1
   123    27    34   am
   124   185   184    1
   125   182   181    1
   126   182   183    2
   127    26    25    1
   128   132   131    1
   129   132   134   ar
   130   136   134   ar
   131   169   170    1
   132   169   168    1
   133    35    36    1
   134    35    34    1
   135    35    38    1
   136   214   205   am
   137   131   128    1
   138   184   181    1
   139   213   211    1
   140   152   150   ar
   141   170   171    2
   142   170   172   am
   143   165   168    1
   144   165   164    1
   145   153   154    1
   146   153   147   am
   147   145   146    1
   148   145   141   am
   149   144   143    1
   150   160   159    2
   151    39    38    1
   152    39    40    1
   153    21    22    2
   154   154   155    1
   155   206   205    2
   156   140   143    1
   157   140   141    1
   158   140   139    1
   159   146   147    1
   160   146   149    1
   161   205   204    1
   162   147   148    2
   163   141   142    2
   164   211   212    1
   165   211   210    2
   166   150   149    1
   167   150   151   ar
   168   159   164   am
   169   159   158    1
   170   128   127    1
   171   128   129    1
   172    40    41    2
   173    40    42   am
   174   127   121   am
   175   210   209    1
   176   155   156    2
   177   207   204    1
   178   207   208    1
   179   204   203    1
   180   129   130    2
   181   158   161    1
   182   158   157    1
   183   120   121    1
   184   120   123    1
   185   120   119    1
   186   121   122    2
   187     8     7   ar
   188   125   123    1
   189   209   208    1
   190   123   124    1
   191   161   162    1
   192   157   163    1
   193     9     7   ar
   194     7     6    1
   195   116   114   ar
   196   116   117   ar
   197   118   117    1
   198     4     3    2
   199   114   112   ar
   200   162   163    1
   201   124   126    1
   202   117   115   ar
   203     6     5    1
   204     3     2    1
   205     5     2    1
   206     2     1    1
   207   112   111    1
   208   112   113   ar
   209   110   109    2
   210   108   111    1
   211   108   107    1
   212   108   109    1
   213   115   113   ar
