@<TRIPOS>MOLECULE
tmp/2om9D00.pdb
 132 123 0 0 0
SMALL
GASTEIGER

@<TRIPOS>ATOM
      1  N         32.1850   20.3050  -72.5430 N.3    77  VAL77      -0.1231
      2  CA        33.6400   20.2690  -72.6340 C.3    77  VAL77       0.1692
      3  C         34.2850   20.6320  -71.3010 C.2    77  VAL77       0.2591
      4  O         35.4060   20.2170  -71.0090 O.2    77  VAL77      -0.2718
      5  CB        34.1610   21.2240  -73.7230 C.3    77  VAL77       0.0266
      6  CG1       35.6660   21.4000  -73.5970 C.3    77  VAL77       0.0020
      7  CG2       33.7920   20.7050  -75.1050 C.3    77  VAL77       0.0020
      8  N         33.5690   21.4100  -70.4950 N.am   78  GLN78      -0.1979
      9  CA        34.0090   21.7220  -69.1410 C.3    78  GLN78       0.1601
     10  C         33.6940   20.5790  -68.1820 C.2    78  GLN78       0.2287
     11  O         34.5770   20.0790  -67.4870 O.2    78  GLN78      -0.2864
     12  CB        33.3570   23.0160  -68.6500 C.3    78  GLN78       0.0394
     13  CG        34.2470   24.2430  -68.7670 C.3    78  GLN78       0.0908
     14  CD        34.2270   25.0990  -67.5170 C.2    78  GLN78       0.2608
     15  OE1       33.4920   26.0830  -67.4360 O.2    78  GLN78      -0.2717
     16  NE2       35.0380   24.7270  -66.5330 N.am   78  GLN78      -0.0878
     17  N         36.0660   18.0580  -68.5360 N.3    81  THR81      -0.1203
     18  CA        37.3410   18.4810  -67.9780 C.3    81  THR81       0.1994
     19  C         37.3390   18.3040  -66.4600 C.2    81  THR81       0.2617
     20  O         38.2560   17.6860  -65.9270 O.2    81  THR81      -0.2717
     21  CB        37.7380   19.9230  -68.3840 C.3    81  THR81       0.1784
     22  OG1       37.9380   19.9830  -69.8030 O.3    81  THR81      -0.2211
     23  CG2       39.0270   20.3360  -67.6940 C.3    81  THR81       0.0376
     24  N         36.3260   18.8360  -65.7840 N.am   82  GLU82      -0.1979
     25  CA        36.1590   18.6010  -64.3530 C.3    82  GLU82       0.1602
     26  C         36.3070   17.1200  -64.0190 C.2    82  GLU82       0.2287
     27  O         36.9770   16.7530  -63.0530 O.2    82  GLU82      -0.2864
     28  CB        34.7960   19.1130  -63.8820 C.3    82  GLU82       0.0415
     29  CG        34.6890   20.6280  -63.8230 C.3    82  GLU82       0.1163
     30  CD        35.9810   21.2870  -63.3820 C.2    82  GLU82       0.3649
     31  OE1       36.4400   21.0030  -62.2560 O.co2  82  GLU82      -0.2457
     32  OE2       36.5370   22.0890  -64.1610 O.co2  82  GLU82      -0.2457
     33  N         40.0460   15.7080  -64.5950 N.3    85  LYS85      -0.1245
     34  CA        40.9040   16.1020  -63.4920 C.3    85  LYS85       0.1561
     35  C         40.8120   15.1750  -62.2770 C.2    85  LYS85       0.2260
     36  O         41.7910   15.0440  -61.5210 O.2    85  LYS85      -0.2867
     37  CB        40.5990   17.5260  -63.0700 C.3    85  LYS85       0.0271
     38  CG        40.8390   18.5410  -64.1490 C.3    85  LYS85       0.0035
     39  CD        41.1450   19.8940  -63.5370 C.3    85  LYS85       0.0206
     40  CE        39.9070   20.5350  -63.0060 C.3    85  LYS85       0.1093
     41  NZ        39.9100   21.9700  -63.2280 N.3    85  LYS85      -0.1314
     42  N         45.5930   11.3290  -63.6030 N.3    90  PHE90      -0.1227
     43  CA        45.4560   12.1680  -64.8110 C.3    90  PHE90       0.1736
     44  C         46.2660   13.4570  -64.8010 C.2    90  PHE90       0.2595
     45  O         47.0320   13.7080  -65.7350 O.2    90  PHE90      -0.2718
     46  CB        43.9880   12.4950  -65.1210 C.3    90  PHE90       0.0547
     47  CG        43.7920   13.3570  -66.3650 C.ar   90  PHE90      -0.0202
     48  CD1       43.6790   12.7690  -67.6260 C.ar   90  PHE90      -0.0042
     49  CD2       43.6860   14.7370  -66.2640 C.ar   90  PHE90      -0.0042
     50  CE1       43.4840   13.5370  -68.7700 C.ar   90  PHE90      -0.0003
     51  CE2       43.4990   15.5280  -67.4030 C.ar   90  PHE90      -0.0003
     52  CZ        43.3990   14.9260  -68.6620 C.ar   90  PHE90      -0.0000
     53  N         46.0660   14.2830  -63.7720 N.am   91  VAL91      -0.1980
     54  CA        46.7270   15.5850  -63.7100 C.3    91  VAL91       0.1595
     55  C         48.2270   15.5000  -63.3660 C.2    91  VAL91       0.2287
     56  O         48.8840   16.5320  -63.2090 O.2    91  VAL91      -0.2864
     57  CB        45.9990   16.6100  -62.7830 C.3    91  VAL91       0.0276
     58  CG1       44.6260   16.9350  -63.3220 C.3    91  VAL91       0.0022
     59  CG2       45.9550   16.1320  -61.3130 C.3    91  VAL91       0.0022
     60  N         51.2440   17.9100  -69.4560 N.3    95  LEU95      -0.1245
     61  CA        50.1280   18.8010  -69.7300 C.3    95  LEU95       0.1561
     62  C         49.6950   18.7010  -71.1850 C.2    95  LEU95       0.2260
     63  O         48.4990   18.7720  -71.4900 O.2    95  LEU95      -0.2867
     64  CB        50.4490   20.2410  -69.3420 C.3    95  LEU95       0.0270
     65  CG        50.5770   20.3830  -67.8240 C.3    95  LEU95       0.0019
     66  CD1       51.4950   21.5440  -67.4250 C.3    95  LEU95       0.0001
     67  CD2       49.2160   20.5070  -67.1780 C.3    95  LEU95       0.0001
     68  N         47.6840   15.7140  -71.5990 N.3    98  GLN98      -0.1231
     69  CA        46.3600   16.0190  -71.0420 C.3    98  GLN98       0.1698
     70  C         45.4440   16.6880  -72.0730 C.2    98  GLN98       0.2592
     71  O         44.2470   16.3980  -72.1290 O.2    98  GLN98      -0.2718
     72  CB        46.4820   16.8750  -69.7870 C.3    98  GLN98       0.0381
     73  CG        47.0510   16.1230  -68.5990 C.3    98  GLN98       0.0905
     74  CD        47.0920   16.9680  -67.3450 C.2    98  GLN98       0.2608
     75  OE1       46.1560   17.7100  -67.0590 O.2    98  GLN98      -0.2717
     76  NE2       48.1820   16.8670  -66.5930 N.am   98  GLN98      -0.0878
     77  N         46.0200   17.5630  -72.8920 N.am   99  VAL99      -0.1980
     78  CA        45.2870   18.2160  -73.9610 C.3    99  VAL99       0.1595
     79  C         44.8920   17.1990  -75.0250 C.2    99  VAL99       0.2287
     80  O         43.7120   17.1030  -75.3950 O.2    99  VAL99      -0.2864
     81  CB        46.1250   19.3420  -74.6110 C.3    99  VAL99       0.0276
     82  CG1       45.3550   20.0200  -75.7260 C.3    99  VAL99       0.0022
     83  CG2       46.5010   20.3430  -73.5730 C.3    99  VAL99       0.0022
     84  N         42.0480   14.8870  -73.8610 N.3   102  LEU102     -0.1231
     85  CA        40.7800   15.5850  -73.8390 C.3   102  LEU102      0.1693
     86  C         40.3200   15.8820  -75.2460 C.2   102  LEU102      0.2591
     87  O         39.1380   15.7900  -75.5360 O.2   102  LEU102     -0.2718
     88  CB        40.9010   16.8660  -73.0300 C.3   102  LEU102      0.0284
     89  CG        40.4320   16.8730  -71.5810 C.3   102  LEU102      0.0019
     90  CD1       40.2470   15.5120  -70.9960 C.3   102  LEU102      0.0001
     91  CD2       41.4290   17.6360  -70.7540 C.3   102  LEU102      0.0001
     92  N         41.2690   16.2090  -76.1140 N.am  103  LYS103     -0.1980
     93  CA        40.9750   16.5690  -77.4940 C.3   103  LYS103      0.1596
     94  C         40.2280   15.4480  -78.2080 C.2   103  LYS103      0.2287
     95  O         39.1660   15.6880  -78.7860 O.2   103  LYS103     -0.2864
     96  CB        42.2600   16.9320  -78.2500 C.3   103  LYS103      0.0298
     97  CG        42.1500   18.1650  -79.1230 C.3   103  LYS103      0.0038
     98  CD        43.5240   18.8150  -79.3470 C.3   103  LYS103      0.0206
     99  CE        43.4030   20.3470  -79.2970 C.3   103  LYS103      0.1093
    100  NZ        44.3470   21.0640  -80.2120 N.3   103  LYS103     -0.1314
    101  N         36.7160   14.0780  -75.6380 N.3   106  VAL106     -0.1245
    102  CA        35.4110   14.6960  -75.3160 C.3   106  VAL106      0.1561
    103  C         34.2100   14.2240  -76.1470 C.2   106  VAL106      0.2260
    104  O         33.1390   13.9730  -75.5960 O.2   106  VAL106     -0.2867
    105  CB        35.4590   16.2410  -75.2740 C.3   106  VAL106      0.0252
    106  CG1       36.3180   16.6950  -74.1190 C.3   106  VAL106      0.0019
    107  CG2       35.9780   16.8160  -76.5740 C.3   106  VAL106      0.0019
    108  N         36.2320   27.2760  -79.3430 N.3   252  LEU252     -0.1245
    109  CA        36.6660   26.1830  -78.4640 C.3   252  LEU252      0.1561
    110  C         36.5600   24.8430  -79.2020 C.2   252  LEU252      0.2260
    111  O         37.5390   24.1170  -79.3310 O.2   252  LEU252     -0.2867
    112  CB        35.8440   26.1360  -77.1680 C.3   252  LEU252      0.0270
    113  CG        36.3950   25.5680  -75.8430 C.3   252  LEU252      0.0019
    114  CD1       35.2600   24.9740  -75.0220 C.3   252  LEU252      0.0001
    115  CD2       37.5090   24.5490  -75.9820 C.3   252  LEU252      0.0001
    116  N         38.9500   24.5140  -81.8760 N.3   255  GLU255     -0.1231
    117  CA        40.2700   24.0970  -81.4300 C.3   255  GLU255      0.1699
    118  C         40.3980   22.5790  -81.2960 C.2   255  GLU255      0.2592
    119  O         41.4540   22.0050  -81.6090 O.2   255  GLU255     -0.2718
    120  CB        40.6330   24.7560  -80.1060 C.3   255  GLU255      0.0402
    121  CG        41.5370   25.9480  -80.2580 C.3   255  GLU255      0.1161
    122  CD        42.9110   25.6120  -80.8230 C.2   255  GLU255      0.3649
    123  OE1       43.5730   24.6640  -80.3360 O.co2 255  GLU255     -0.2457
    124  OE2       43.3330   26.3220  -81.7540 O.co2 255  GLU255     -0.2457
    125  N         39.3250   21.9470  -80.8180 N.am  256  ILE256     -0.1980
    126  CA        39.3020   20.5100  -80.5850 C.3   256  ILE256      0.1595
    127  C         39.3230   19.7620  -81.9150 C.2   256  ILE256      0.2287
    128  O         40.0960   18.8370  -82.0810 O.2   256  ILE256     -0.2864
    129  CB        38.1000   20.1020  -79.7090 C.3   256  ILE256      0.0276
    130  CG1       38.2890   20.6450  -78.2940 C.3   256  ILE256      0.0022
    131  CG2       37.9440   18.5890  -79.6640 C.3   256  ILE256      0.0022
    132  CD1       37.0160   20.7430  -77.4740 C.3   256  ILE256      0.0001
@<TRIPOS>BOND
     1   128   127    2
     2   127   126    1
     3   116   117    1
     4   124   122   ar
     5   119   118    2
     6   117   118    1
     7   117   120    1
     8   118   125   am
     9   122   123   ar
    10   122   121    1
    11   125   126    1
    12   126   129    1
    13   121   120    1
    14   100    99    1
    15   129   131    1
    16   129   130    1
    17    98    99    1
    18    98    97    1
    19   108   109    1
    20   111   110    2
    21   110   109    1
    22    97    96    1
    23    95    94    2
    24   109   112    1
    25   130   132    1
    26    96    93    1
    27    94    93    1
    28    93    92    1
    29   112   113    1
    30   107   105    1
    31   103   104    2
    32   103   102    1
    33    92    86   am
    34   115   113    1
    35   113   114    1
    36    82    81    1
    37   101   102    1
    38    87    86    2
    39    80    79    2
    40   102   105    1
    41   105   106    1
    42    86    85    1
    43     7     5    1
    44    79    78    1
    45    81    78    1
    46    81    83    1
    47    78    77    1
    48    84    85    1
    49    85    88    1
    50     5     6    1
    51     5     2    1
    52    88    89    1
    53    77    70   am
    54     2     1    1
    55     2     3    1
    56    71    70    2
    57    70    69    1
    58    68    69    1
    59    89    90    1
    60    89    91    1
    61    63    62    2
    62     3     4    2
    63     3     8   am
    64    62    61    1
    65    69    72    1
    66     8     9    1
    67    22    21    1
    68    72    73    1
    69    61    60    1
    70    61    64    1
    71    64    65    1
    72     9    12    1
    73     9    10    1
    74    50    52   ar
    75    50    48   ar
    76    13    12    1
    77    13    14    1
    78    52    51   ar
    79    73    74    1
    80    17    18    1
    81    21    18    1
    82    21    23    1
    83    10    11    2
    84    18    19    1
    85    65    66    1
    86    65    67    1
    87    48    47   ar
    88    14    15    2
    89    14    16   am
    90    51    49   ar
    91    74    75    2
    92    74    76   am
    93    19    20    2
    94    19    24   am
    95    47    49   ar
    96    47    46    1
    97    24    25    1
    98    45    44    2
    99    46    43    1
   100    43    44    1
   101    43    42    1
   102    44    53   am
   103    33    34    1
   104    25    26    1
   105    25    28    1
   106    32    30   ar
   107    38    39    1
   108    38    37    1
   109    26    27    2
   110    28    29    1
   111    29    30    1
   112    53    54    1
   113    54    55    1
   114    54    57    1
   115    39    40    1
   116    34    37    1
   117    34    35    1
   118    30    31   ar
   119    55    56    2
   120    58    57    1
   121    41    40    1
   122    57    59    1
   123    35    36    2
