@<TRIPOS>MOLECULE
tmp/2om9D01.pdb
 204 196 0 0 0
SMALL
GASTEIGER

@<TRIPOS>ATOM
      1  N          9.4600   18.8980  -79.3570 N.3    38  ILE38      -0.1245
      2  CA         9.7390   19.5880  -80.6100 C.3    38  ILE38       0.1561
      3  C          9.7540   18.5440  -81.7170 C.2    38  ILE38       0.2260
      4  O         10.5930   17.6540  -81.7140 O.2    38  ILE38      -0.2867
      5  CB        11.0670   20.3820  -80.5440 C.3    38  ILE38       0.0252
      6  CG1       10.9210   21.5890  -79.6000 C.3    38  ILE38       0.0019
      7  CG2       11.5100   20.8190  -81.9400 C.3    38  ILE38       0.0019
      8  CD1       12.2480   22.2080  -79.1400 C.3    38  ILE38       0.0001
      9  N          9.3390   24.0110  -82.6070 N.3    44  LEU44      -0.1245
     10  CA        10.6630   24.6020  -82.4150 C.3    44  LEU44       0.1561
     11  C         10.6360   26.0820  -82.0270 C.2    44  LEU44       0.2260
     12  O         11.3450   26.4890  -81.1070 O.2    44  LEU44      -0.2867
     13  CB        11.5300   24.3920  -83.6600 C.3    44  LEU44       0.0270
     14  CG        12.9010   25.0700  -83.7150 C.3    44  LEU44       0.0019
     15  CD1       13.8910   24.4170  -82.7790 C.3    44  LEU44       0.0001
     16  CD2       13.4190   25.0320  -85.1180 C.3    44  LEU44       0.0001
     17  N         15.6410   28.3610  -71.9600 N.3    53  PHE53      -0.1227
     18  CA        17.0140   27.8900  -72.1230 C.3    53  PHE53       0.1736
     19  C         18.1560   28.9260  -72.1350 C.2    53  PHE53       0.2595
     20  O         17.9650   30.0900  -72.5020 O.2    53  PHE53      -0.2718
     21  CB        17.1590   26.8100  -73.2220 C.3    53  PHE53       0.0547
     22  CG        16.3760   27.0560  -74.5000 C.ar   53  PHE53      -0.0202
     23  CD1       16.3110   28.3120  -75.0910 C.ar   53  PHE53      -0.0042
     24  CD2       15.7740   25.9740  -75.1570 C.ar   53  PHE53      -0.0042
     25  CE1       15.6150   28.4910  -76.2900 C.ar   53  PHE53      -0.0003
     26  CE2       15.0910   26.1400  -76.3500 C.ar   53  PHE53      -0.0003
     27  CZ        15.0070   27.3990  -76.9220 C.ar   53  PHE53      -0.0000
     28  N         19.3340   28.4520  -71.7190 N.am   54  LYS54      -0.1966
     29  CA        20.5470   29.2540  -71.4810 C.3    54  LYS54       0.1728
     30  C         21.1200   30.0220  -72.6750 C.2    54  LYS54       0.2616
     31  O         21.8200   31.0220  -72.4860 O.2    54  LYS54      -0.2715
     32  CB        21.6450   28.3760  -70.8480 C.3    54  LYS54       0.0311
     33  CG        21.9810   28.7370  -69.3880 C.3    54  LYS54       0.0038
     34  CD        22.5810   27.5530  -68.5950 C.3    54  LYS54       0.0206
     35  CE        23.4230   28.0130  -67.3680 C.3    54  LYS54       0.1093
     36  NZ        22.7230   28.9530  -66.4170 N.3    54  LYS54      -0.1314
     37  N         20.8430   29.5580  -73.8920 N.am   55  HIS55      -0.1973
     38  CA        21.3240   30.2630  -75.0790 C.3    55  HIS55       0.1656
     39  C         20.2220   31.0200  -75.8140 C.2    55  HIS55       0.2291
     40  O         19.2320   30.4320  -76.2580 O.2    55  HIS55      -0.2864
     41  CB        22.0670   29.3300  -76.0410 C.3    55  HIS55       0.0771
     42  CG        22.3550   29.9520  -77.3740 C.ar   55  HIS55       0.0820
     43  ND1       23.1830   31.0470  -77.5210 N.ar   55  HIS55      -0.2267
     44  CD2       21.9130   29.6450  -78.6180 C.ar   55  HIS55       0.1154
     45  CE1       23.2370   31.3870  -78.7980 C.ar   55  HIS55       0.1986
     46  NE2       22.4810   30.5480  -79.4850 N.ar   55  HIS55      -0.2212
     47  N         18.0290   24.8730  -89.7650 N.3    62  ALA62      -0.1245
     48  CA        19.1810   23.9830  -89.6650 C.3    62  ALA62       0.1562
     49  C         20.3760   24.6870  -89.0060 C.2    62  ALA62       0.2260
     50  O         20.8700   24.2180  -87.9710 O.2    62  ALA62      -0.2867
     51  CB        19.5540   23.4150  -91.0240 C.3    62  ALA62       0.0290
     52  N         20.5320   27.5200  -87.2180 N.3    64  ARG64      -0.1231
     53  CA        20.2380   28.0000  -85.8520 C.3    64  ARG64       0.1694
     54  C         20.1570   26.8680  -84.8210 C.2    64  ARG64       0.2592
     55  O         20.5410   27.0370  -83.6610 O.2    64  ARG64      -0.2718
     56  CB        18.9640   28.8660  -85.8270 C.3    64  ARG64       0.0321
     57  CG        18.9050   29.9550  -86.9210 C.3    64  ARG64       0.0489
     58  CD        17.8940   31.0510  -86.5970 C.3    64  ARG64       0.2205
     59  NE        16.5890   30.5060  -86.2150 N.pl3  64  ARG64      -0.0865
     60  CZ        15.5570   30.3550  -87.0420 C.cat  64  ARG64       0.5346
     61  NH1       14.4250   29.8420  -86.5830 N.pl3  64  ARG64       0.1354
     62  NH2       15.6480   30.7110  -88.3220 N.pl3  64  ARG64       0.1354
     63  N         19.6590   25.7170  -85.2640 N.am   65  ILE65      -0.1966
     64  CA        19.6820   24.4950  -84.4760 C.3    65  ILE65       0.1727
     65  C         21.1080   23.9770  -84.3790 C.2    65  ILE65       0.2616
     66  O         21.4870   23.3890  -83.3770 O.2    65  ILE65      -0.2715
     67  CB        18.7450   23.4330  -85.0890 C.3    65  ILE65       0.0290
     68  CG1       17.2890   23.8330  -84.8450 C.3    65  ILE65       0.0022
     69  CG2       18.9870   22.0710  -84.5030 C.3    65  ILE65       0.0023
     70  CD1       16.2850   22.7900  -85.2660 C.3    65  ILE65       0.0001
     71  N         21.9010   24.2010  -85.4220 N.am   66  PHE66      -0.1974
     72  CA        23.2870   23.7270  -85.4360 C.3    66  PHE66       0.1639
     73  C         24.2250   24.6180  -84.5870 C.2    66  PHE66       0.2290
     74  O         25.2010   24.1330  -83.9930 O.2    66  PHE66      -0.2864
     75  CB        23.8020   23.5720  -86.8780 C.3    66  PHE66       0.0560
     76  CG        25.2630   23.2730  -86.9620 C.ar   66  PHE66      -0.0200
     77  CD1       26.1870   24.3010  -87.1380 C.ar   66  PHE66      -0.0042
     78  CD2       25.7280   21.9680  -86.8280 C.ar   66  PHE66      -0.0042
     79  CE1       27.5620   24.0300  -87.1970 C.ar   66  PHE66      -0.0003
     80  CE2       27.1040   21.6810  -86.8850 C.ar   66  PHE66      -0.0003
     81  CZ        28.0220   22.7130  -87.0740 C.ar   66  PHE66      -0.0000
     82  N         23.0250   26.8560  -82.0950 N.3    68  GLY68      -0.1210
     83  CA        22.4610   26.8830  -80.7600 C.3    68  GLY68       0.1956
     84  C         22.8480   25.7090  -79.8850 C.2    68  GLY68       0.2612
     85  O         22.9530   25.8380  -78.6580 O.2    68  GLY68      -0.2717
     86  N         23.0660   24.5590  -80.4990 N.am   69  CYS69      -0.1970
     87  CA        23.3930   23.3810  -79.7270 C.3    69  CYS69       0.1712
     88  C         24.8630   23.3790  -79.3280 C.2    69  CYS69       0.2296
     89  O         25.2730   22.6020  -78.4590 O.2    69  CYS69      -0.2864
     90  CB        23.0930   22.1260  -80.5240 C.3    69  CYS69       0.0983
     91  SG        24.4580   21.6700  -81.5780 S.3    69  CYS69      -0.0798
     92  N         26.5640   25.4800  -77.7670 N.3    71  PHE71      -0.1227
     93  CA        26.8150   26.0180  -76.4530 C.3    71  PHE71       0.1736
     94  C         26.7420   24.9540  -75.3870 C.2    71  PHE71       0.2595
     95  O         27.4950   24.9850  -74.4240 O.2    71  PHE71      -0.2718
     96  CB        25.9020   27.2120  -76.1870 C.3    71  PHE71       0.0547
     97  CG        26.2290   28.3870  -77.0610 C.ar   71  PHE71      -0.0202
     98  CD1       25.4830   28.6510  -78.2100 C.ar   71  PHE71      -0.0042
     99  CD2       27.3420   29.1940  -76.7730 C.ar   71  PHE71      -0.0042
    100  CE1       25.8160   29.7290  -79.0450 C.ar   71  PHE71      -0.0003
    101  CE2       27.6860   30.2660  -77.5910 C.ar   71  PHE71      -0.0003
    102  CZ        26.9190   30.5410  -78.7370 C.ar   71  PHE71      -0.0000
    103  N         25.8720   23.9790  -75.5930 N.am   72  ARG72      -0.1980
    104  CA        25.7640   22.8510  -74.6890 C.3    72  ARG72       0.1597
    105  C         27.0180   21.9880  -74.7880 C.2    72  ARG72       0.2287
    106  O         27.3960   21.3160  -73.8330 O.2    72  ARG72      -0.2864
    107  CB        24.4690   22.0540  -74.9670 C.3    72  ARG72       0.0334
    108  CG        24.3900   20.6500  -74.3590 C.3    72  ARG72       0.0492
    109  CD        24.4490   20.6350  -72.8280 C.3    72  ARG72       0.2205
    110  NE        25.1680   19.4570  -72.3270 N.pl3  72  ARG72      -0.0865
    111  CZ        25.7450   19.3730  -71.1260 C.cat  72  ARG72       0.5346
    112  NH1       25.6890   20.4060  -70.2890 N.pl3  72  ARG72       0.1354
    113  NH2       26.3880   18.2640  -70.7590 N.pl3  72  ARG72       0.1354
    114  N         25.2070   11.4370  -74.4640 N.3   114  LEU114     -0.1245
    115  CA        24.0280   11.7460  -75.2670 C.3   114  LEU114      0.1561
    116  C         23.0740   10.5400  -75.3430 C.2   114  LEU114      0.2260
    117  O         21.8590   10.7120  -75.2620 O.2   114  LEU114     -0.2867
    118  CB        24.4540   12.2090  -76.6570 C.3   114  LEU114      0.0270
    119  CG        23.5210   13.0770  -77.5050 C.3   114  LEU114      0.0019
    120  CD1       22.8240   14.1490  -76.7070 C.3   114  LEU114      0.0001
    121  CD2       24.2840   13.7290  -78.6460 C.3   114  LEU114      0.0001
    122  N         15.3180   12.7750  -78.2560 N.3   123  VAL123     -0.1231
    123  CA        16.4230   13.0920  -77.3470 C.3   123  VAL123      0.1692
    124  C         16.1100   14.3090  -76.4820 C.2   123  VAL123      0.2592
    125  O         15.4190   15.2140  -76.9120 O.2   123  VAL123     -0.2718
    126  CB        17.7320   13.3310  -78.1360 C.3   123  VAL123      0.0266
    127  CG1       17.5970   14.5440  -79.0740 C.3   123  VAL123      0.0020
    128  CG2       18.9450   13.4610  -77.2060 C.3   123  VAL123      0.0020
    129  N         16.6390   14.3170  -75.2640 N.am  124  LEU124     -0.1966
    130  CA        16.3440   15.3330  -74.2660 C.3   124  LEU124      0.1728
    131  C         17.1810   16.5810  -74.4290 C.2   124  LEU124      0.2616
    132  O         18.4020   16.4970  -74.5400 O.2   124  LEU124     -0.2715
    133  CB        16.5910   14.7590  -72.8640 C.3   124  LEU124      0.0311
    134  CG        15.5580   13.7760  -72.2990 C.3   124  LEU124      0.0022
    135  CD1       16.0520   13.2730  -70.9710 C.3   124  LEU124      0.0001
    136  CD2       14.1370   14.3860  -72.1670 C.3   124  LEU124      0.0001
    137  N         16.5370   17.7430  -74.4040 N.am  125  ILE125     -0.1963
    138  CA        17.2700   19.0140  -74.4510 C.3   125  ILE125      0.1727
    139  C         16.9620   19.9320  -73.2550 C.2   125  ILE125      0.2616
    140  O         15.9590   19.7400  -72.5770 O.2   125  ILE125     -0.2715
    141  CB        17.0460   19.7510  -75.7800 C.3   125  ILE125      0.0290
    142  CG1       15.5530   20.0030  -76.0230 C.3   125  ILE125      0.0022
    143  CG2       17.6660   18.9630  -76.9230 C.3   125  ILE125      0.0023
    144  CD1       15.2680   20.8150  -77.2780 C.3   125  ILE125      0.0001
    145  N         17.8290   20.9170  -73.0130 N.am  126  SER126     -0.1950
    146  CA        17.7100   21.8520  -71.8900 C.3   126  SER126      0.1924
    147  C         17.5300   21.1480  -70.5620 C.2   126  SER126      0.2314
    148  O         16.4440   21.1860  -69.9890 O.2   126  SER126     -0.2863
    149  CB        16.5470   22.8180  -72.0900 C.3   126  SER126      0.2116
    150  OG        16.6120   23.4530  -73.3440 O.3   126  SER126     -0.2180
    151  N         13.4410   16.7760  -78.4300 N.3   132  MET132     -0.1245
    152  CA        13.3960   16.9420  -79.8740 C.3   132  MET132      0.1570
    153  C         13.3440   15.5630  -80.4790 C.2   132  MET132      0.2261
    154  O         14.1120   14.6970  -80.0640 O.2   132  MET132     -0.2867
    155  CB        14.6570   17.6540  -80.3500 C.3   132  MET132      0.0387
    156  CG        14.5590   18.1840  -81.7520 C.3   132  MET132      0.0595
    157  SD        15.8480   19.3680  -82.1350 S.3   132  MET132     -0.1393
    158  CE        15.2770   20.7430  -81.1320 C.3   132  MET132      0.0692
    159  N         14.7620   15.8200  -86.5270 N.3   137  LEU137     -0.1245
    160  CA        16.1910   16.0020  -86.7780 C.3   137  LEU137      0.1561
    161  C         16.6120   15.4420  -88.1240 C.2   137  LEU137      0.2260
    162  O         17.4200   16.0500  -88.8230 O.2   137  LEU137     -0.2867
    163  CB        17.0270   15.3820  -85.6540 C.3   137  LEU137      0.0270
    164  CG        17.1200   16.1320  -84.3130 C.3   137  LEU137      0.0019
    165  CD1       17.6120   15.2050  -83.2090 C.3   137  LEU137      0.0001
    166  CD2       18.0010   17.3820  -84.4210 C.3   137  LEU137      0.0001
    167  N         15.7440   17.6050  -91.3820 N.3   140  LEU140     -0.1245
    168  CA        16.4980   18.8320  -91.6340 C.3   140  LEU140      0.1561
    169  C         17.2270   18.7100  -92.9600 C.2   140  LEU140      0.2260
    170  O         17.8020   17.6570  -93.2480 O.2   140  LEU140     -0.2867
    171  CB        17.4910   19.1100  -90.5040 C.3   140  LEU140      0.0270
    172  CG        16.8720   19.3740  -89.1360 C.3   140  LEU140      0.0019
    173  CD1       17.9520   19.4150  -88.0780 C.3   140  LEU140      0.0001
    174  CD2       16.0710   20.6610  -89.1340 C.3   140  LEU140      0.0001
    175  N         22.5060   18.6310  -92.6010 N.3   144  PHE144     -0.1241
    176  CA        22.1540   18.7500  -91.1860 C.3   144  PHE144      0.1605
    177  C         21.2050   17.6700  -90.6860 C.2   144  PHE144      0.2264
    178  O         21.1870   17.3670  -89.4890 O.2   144  PHE144     -0.2867
    179  CB        21.6400   20.1620  -90.8730 C.3   144  PHE144      0.0534
    180  CG        22.6500   21.2370  -91.1550 C.ar  144  PHE144     -0.0203
    181  CD1       23.6720   21.5000  -90.2510 C.ar  144  PHE144     -0.0042
    182  CD2       22.6070   21.9510  -92.3400 C.ar  144  PHE144     -0.0042
    183  CE1       24.6280   22.4640  -90.5130 C.ar  144  PHE144     -0.0003
    184  CE2       23.5570   22.9310  -92.6120 C.ar  144  PHE144     -0.0003
    185  CZ        24.5730   23.1840  -91.6980 C.ar  144  PHE144     -0.0000
    186  N         23.2560   14.5850  -89.1260 N.3   147  PHE147     -0.1227
    187  CA        24.1600   14.7430  -87.9870 C.3   147  PHE147      0.1736
    188  C         23.7910   13.8840  -86.7810 C.2   147  PHE147      0.2595
    189  O         24.6650   13.3110  -86.1260 O.2   147  PHE147     -0.2718
    190  CB        24.3150   16.2060  -87.5830 C.3   147  PHE147      0.0547
    191  CG        25.4550   16.9050  -88.2720 C.ar  147  PHE147     -0.0202
    192  CD1       26.7760   16.5950  -87.9550 C.ar  147  PHE147     -0.0042
    193  CD2       25.2140   17.8750  -89.2410 C.ar  147  PHE147     -0.0042
    194  CE1       27.8370   17.2380  -88.5990 C.ar  147  PHE147     -0.0003
    195  CE2       26.2690   18.5250  -89.8870 C.ar  147  PHE147     -0.0003
    196  CZ        27.5800   18.2040  -89.5650 C.ar  147  PHE147     -0.0000
    197  N         22.5000   13.7610  -86.5120 N.am  148  MET148     -0.1979
    198  CA        22.0760   13.0390  -85.3340 C.3   148  MET148      0.1605
    199  C         21.8130   11.5540  -85.5500 C.2   148  MET148      0.2287
    200  O         22.0040   10.7570  -84.6260 O.2   148  MET148     -0.2864
    201  CB        20.8670   13.7210  -84.7040 C.3   148  MET148      0.0413
    202  CG        21.2120   15.0480  -84.0310 C.3   148  MET148      0.0598
    203  SD        22.5960   14.9810  -82.8720 S.3   148  MET148     -0.1393
    204  CE        21.9450   13.9440  -81.5710 C.3   148  MET148      0.0692
@<TRIPOS>BOND
     1   170   169    2
     2   169   168    1
     3   184   182   ar
     4   184   185   ar
     5   175   176    1
     6   182   180   ar
     7   185   183   ar
     8   168   167    1
     9   168   171    1
    10   176   179    1
    11   176   177    1
    12   180   179    1
    13   180   181   ar
    14    51    48    1
    15   177   178    2
    16   183   181   ar
    17   171   172    1
    18   195   196   ar
    19   195   193   ar
    20    47    48    1
    21    48    49    1
    22   196   194   ar
    23   193   191   ar
    24   172   174    1
    25   172   173    1
    26   186   187    1
    27    49    50    2
    28   162   161    2
    29   194   192   ar
    30    62    60    1
    31   191   192   ar
    32   191   190    1
    33   161   160    1
    34   187   190    1
    35   187   188    1
    36    52    53    1
    37    79    77   ar
    38    79    81   ar
    39    77    76   ar
    40    81    80   ar
    41    60    61    1
    42    60    59    2
    43    76    75    1
    44    76    78   ar
    45    57    58    1
    46    57    56    1
    47    80    78   ar
    48    75    72    1
    49   188   197   am
    50   188   189    2
    51   160   159    1
    52   160   163    1
    53    58    59    1
    54   197   198    1
    55    53    56    1
    56    53    54    1
    57   163   164    1
    58   199   198    1
    59   199   200    2
    60    72    71    1
    61    72    73    1
    62    71    65   am
    63   198   201    1
    64    70    68    1
    65    63    54   am
    66    63    64    1
    67    16    14    1
    68    67    68    1
    69    67    69    1
    70    67    64    1
    71    54    55    2
    72   201   202    1
    73    73    74    2
    74    64    65    1
    75   166   164    1
    76    65    66    2
    77   164   165    1
    78   202   203    1
    79    14    13    1
    80    14    15    1
    81    13    10    1
    82   203   204    1
    83     9    10    1
    84    10    11    1
    85   157   156    1
    86   157   158    1
    87    82    83    1
    88    11    12    2
    89     7     5    1
    90   156   155    1
    91     3     4    2
    92     3     2    1
    93    91    90    1
    94    83    84    1
    95     2     5    1
    96     2     1    1
    97     5     6    1
    98    90    87    1
    99    86    84   am
   100    86    87    1
   101   153   154    2
   102   153   152    1
   103   155   152    1
   104    84    85    2
   105   152   151    1
   106    87    88    1
   107     6     8    1
   108    46    45   ar
   109    46    44   ar
   110    88    89    2
   111   127   126    1
   112   100   102   ar
   113   100    98   ar
   114    45    43   ar
   115   102   101   ar
   116   121   119    1
   117    44    42   ar
   118   122   123    1
   119    98    97   ar
   120   126   123    1
   121   126   128    1
   122    92    93    1
   123   101    99   ar
   124    43    42   ar
   125   119   120    1
   126   119   118    1
   127    42    41    1
   128   123   124    1
   129   144   142    1
   130    97    99   ar
   131    97    96    1
   132   143   141    1
   133    27    26   ar
   134    27    25   ar
   135   125   124    2
   136   118   115    1
   137   124   129   am
   138    93    96    1
   139    93    94    1
   140    26    24   ar
   141    25    23   ar
   142    40    39    2
   143    41    38    1
   144   142   141    1
   145    39    38    1
   146   141   138    1
   147   103    94   am
   148   103   104    1
   149    94    95    2
   150   116   115    1
   151   116   117    2
   152   115   114    1
   153   129   130    1
   154    24    22   ar
   155    23    22   ar
   156    38    37    1
   157   107   104    1
   158   107   108    1
   159   105   104    1
   160   105   106    2
   161   132   131    2
   162    22    21    1
   163   138   137    1
   164   138   139    1
   165   131   137   am
   166   131   130    1
   167   108   109    1
   168   130   133    1
   169    37    30   am
   170   150   149    1
   171   139   145   am
   172   139   140    2
   173    21    18    1
   174   145   146    1
   175   133   134    1
   176   109   110    1
   177    30    31    2
   178    30    29    1
   179    20    19    2
   180   110   111    2
   181   134   136    1
   182   134   135    1
   183    19    18    1
   184    19    28   am
   185    18    17    1
   186   149   146    1
   187   146   147    1
   188    28    29    1
   189    29    32    1
   190   111   113    1
   191   111   112    1
   192    32    33    1
   193   147   148    2
   194    33    34    1
   195    34    35    1
   196    35    36    1
