@<TRIPOS>MOLECULE
tmp/2omdA00.pdb
 95 92 0 0 0
SMALL
GASTEIGER

@<TRIPOS>ATOM
      1  N         26.0570  -38.6310    6.1040 N.3    39  GLY39      -0.1210
      2  CA        24.6820  -38.9970    6.4080 C.3    39  GLY39       0.1956
      3  C         24.7720  -40.2570    7.2410 C.2    39  GLY39       0.2612
      4  O         25.3930  -41.2400    6.8220 O.2    39  GLY39      -0.2717
      5  N         24.1470  -40.2380    8.4130 N.am   40  ILE40      -0.1966
      6  CA        24.2210  -41.3620    9.3400 C.3    40  ILE40       0.1712
      7  C         22.8650  -41.9110    9.7920 C.2    40  ILE40       0.2458
      8  O         21.9880  -41.1550   10.2030 O.2    40  ILE40      -0.2730
      9  CB        25.0020  -40.9200   10.5940 C.3    40  ILE40       0.0289
     10  CG1       26.3530  -40.3370   10.1730 C.3    40  ILE40       0.0022
     11  CG2       25.1940  -42.0930   11.5380 C.3    40  ILE40       0.0023
     12  CD1       26.8400  -39.2270   11.0670 C.3    40  ILE40       0.0001
     13  N         22.6810  -43.2410    9.7240 N.am   41  PRO41      -0.2716
     14  CA        21.4130  -43.8450   10.1490 C.3    41  PRO41       0.1536
     15  C         21.1130  -43.4860   11.6070 C.2    41  PRO41       0.2598
     16  O         21.9780  -43.6390   12.4750 O.2    41  PRO41      -0.2715
     17  CB        21.6690  -45.3400    9.9770 C.3    41  PRO41       0.0310
     18  CG        22.5950  -45.3780    8.7890 C.3    41  PRO41       0.0237
     19  CD        23.5570  -44.2440    9.0890 C.3    41  PRO41       0.0939
     20  N         19.8930  -43.0180   11.8680 N.am   42  ARG42      -0.1978
     21  CA        19.4740  -42.6310   13.2150 C.3    42  ARG42       0.1597
     22  C         18.5130  -43.6250   13.8550 C.2    42  ARG42       0.2287
     23  O         17.8390  -44.3910   13.1700 O.2    42  ARG42      -0.2864
     24  CB        18.7330  -41.2950   13.2070 C.3    42  ARG42       0.0334
     25  CG        19.4900  -40.0840   12.7640 C.3    42  ARG42       0.0492
     26  CD        18.6760  -38.8560   13.1420 C.3    42  ARG42       0.2205
     27  NE        17.2840  -38.9990   12.7230 N.pl3  42  ARG42      -0.0865
     28  CZ        16.2730  -38.2960   13.2220 C.cat  42  ARG42       0.5346
     29  NH1       16.4930  -37.3910   14.1680 N.pl3  42  ARG42       0.1354
     30  NH2       15.0410  -38.5010   12.7770 N.pl3  42  ARG42       0.1354
     31  N         20.1510  -50.2010    9.3710 N.3    54  LEU54      -0.1245
     32  CA        19.4050  -49.9880    8.1410 C.3    54  LEU54       0.1561
     33  C         20.0560  -50.8470    7.0750 C.2    54  LEU54       0.2260
     34  O         21.2640  -51.0900    7.1070 O.2    54  LEU54      -0.2867
     35  CB        19.4540  -48.5210    7.7050 C.3    54  LEU54       0.0270
     36  CG        18.7640  -47.4750    8.5790 C.3    54  LEU54       0.0019
     37  CD1       18.9150  -46.1060    7.9290 C.3    54  LEU54       0.0001
     38  CD2       17.2890  -47.8210    8.7540 C.3    54  LEU54       0.0001
     39  N         20.5160  -50.9770    3.0480 N.3    56  TYR56      -0.1241
     40  CA        20.3590  -50.1780    1.8380 C.3    56  TYR56       0.1605
     41  C         20.4420  -51.0090    0.5730 C.2    56  TYR56       0.2264
     42  O         21.3240  -51.8570    0.4340 O.2    56  TYR56      -0.2867
     43  CB        21.4340  -49.0950    1.7640 C.3    56  TYR56       0.0534
     44  CG        21.2950  -47.9930    2.7760 C.ar   56  TYR56      -0.0201
     45  CD1       20.4400  -46.9130    2.5520 C.ar   56  TYR56      -0.0009
     46  CD2       22.0500  -48.0050    3.9480 C.ar   56  TYR56      -0.0009
     47  CE1       20.3520  -45.8660    3.4670 C.ar   56  TYR56       0.0417
     48  CE2       21.9690  -46.9700    4.8680 C.ar   56  TYR56       0.0417
     49  CZ        21.1230  -45.9040    4.6220 C.ar   56  TYR56       0.1957
     50  OH        21.0770  -44.8720    5.5270 O.3    56  TYR56      -0.2866
     51  N         28.1680  -43.8840   -1.2620 N.3    87  HIS87      -0.1241
     52  CA        27.0540  -44.4040   -0.4870 C.3    87  HIS87       0.1621
     53  C         27.2150  -45.9050   -0.3050 C.2    87  HIS87       0.2264
     54  O         27.5920  -46.6190   -1.2380 O.2    87  HIS87      -0.2867
     55  CB        25.7090  -44.0970   -1.1540 C.3    87  HIS87       0.0745
     56  CG        24.5450  -44.2230   -0.2220 C.ar   87  HIS87       0.0817
     57  ND1       23.7130  -43.1690    0.0820 N.ar   87  HIS87      -0.2268
     58  CD2       24.1130  -45.2690    0.5240 C.ar   87  HIS87       0.1154
     59  CE1       22.8210  -43.5560    0.9750 C.ar   87  HIS87       0.1986
     60  NE2       23.0440  -44.8270    1.2610 N.ar   87  HIS87      -0.2212
     61  N         26.5840  -43.7710    6.1650 N.3    98  SER98      -0.1202
     62  CA        26.1550  -44.5760    5.0250 C.3    98  SER98       0.2020
     63  C         26.2210  -43.7370    3.7540 C.2    98  SER98       0.2618
     64  O         26.1760  -44.2660    2.6460 O.2    98  SER98      -0.2717
     65  CB        24.7180  -45.0550    5.2300 C.3    98  SER98       0.2103
     66  OG        23.8300  -43.9520    5.2810 O.3    98  SER98      -0.2182
     67  N         26.3430  -42.4250    3.9300 N.am   99  PHE99      -0.1975
     68  CA        26.3760  -41.4930    2.8080 C.3    99  PHE99       0.1639
     69  C         27.4560  -40.4360    3.0320 C.2    99  PHE99       0.2290
     70  O         27.5510  -39.8540    4.1140 O.2    99  PHE99      -0.2864
     71  CB        24.9890  -40.8460    2.6740 C.3    99  PHE99       0.0560
     72  CG        24.8550  -39.8880    1.5210 C.ar   99  PHE99      -0.0200
     73  CD1       25.4940  -40.1290    0.3100 C.ar   99  PHE99      -0.0042
     74  CD2       24.0440  -38.7600    1.6380 C.ar   99  PHE99      -0.0042
     75  CE1       25.3210  -39.2660   -0.7730 C.ar   99  PHE99      -0.0003
     76  CE2       23.8630  -37.8900    0.5590 C.ar   99  PHE99      -0.0003
     77  CZ        24.5070  -38.1440   -0.6470 C.ar   99  PHE99      -0.0000
     78  N         19.6410  -37.2180   -2.9050 N.3   123  LYS123     -0.1245
     79  CA        18.4590  -37.6980   -2.2050 C.3   123  LYS123      0.1561
     80  C         17.1990  -37.6520   -3.0690 C.2   123  LYS123      0.2260
     81  O         16.3410  -38.5310   -2.9740 O.2   123  LYS123     -0.2867
     82  CB        18.2480  -36.8910   -0.9240 C.3   123  LYS123      0.0271
     83  CG        19.2170  -37.2610    0.1920 C.3   123  LYS123      0.0035
     84  CD        18.9710  -36.4330    1.4400 C.3   123  LYS123      0.0206
     85  CE        19.8290  -36.9210    2.5980 C.3   123  LYS123      0.1093
     86  NZ        19.5020  -38.3250    2.9710 N.3   123  LYS123     -0.1314
     87  N         16.2220  -47.4760    1.7440 N.3   130  LYS130     -0.1245
     88  CA        16.5300  -48.1920    2.9700 C.3   130  LYS130      0.1561
     89  C         15.4180  -49.1040    3.4540 C.2   130  LYS130      0.2260
     90  O         14.2820  -49.0420    2.9830 O.2   130  LYS130     -0.2867
     91  CB        16.8540  -47.1930    4.0810 C.3   130  LYS130      0.0271
     92  CG        15.6770  -46.3000    4.4430 C.3   130  LYS130      0.0035
     93  CD        16.0200  -45.3260    5.5560 C.3   130  LYS130      0.0206
     94  CE        14.8170  -44.4490    5.8820 C.3   130  LYS130      0.1093
     95  NZ        15.0980  -43.4820    6.9780 N.3   130  LYS130     -0.1314
@<TRIPOS>BOND
     1    80    81    2
     2    80    79    1
     3    78    79    1
     4    79    82    1
     5    51    52    1
     6    54    53    2
     7    55    52    1
     8    55    56    1
     9    82    83    1
    10    75    77   ar
    11    75    73   ar
    12    77    76   ar
    13    52    53    1
    14    56    57   ar
    15    56    58   ar
    16    57    59   ar
    17    83    84    1
    18    73    72   ar
    19    42    41    2
    20    58    60   ar
    21    76    74   ar
    22    41    40    1
    23    59    60   ar
    24    84    85    1
    25    72    74   ar
    26    72    71    1
    27    87    88    1
    28    43    40    1
    29    43    44    1
    30    40    39    1
    31    45    44   ar
    32    45    47   ar
    33    85    86    1
    34    64    63    2
    35    71    68    1
    36    44    46   ar
    37    68    69    1
    38    68    67    1
    39    88    89    1
    40    88    91    1
    41    90    89    2
    42    69    70    2
    43    47    49   ar
    44    63    67   am
    45    63    62    1
    46    46    48   ar
    47    91    92    1
    48    92    93    1
    49    49    48   ar
    50    49    50    1
    51    62    65    1
    52    62    61    1
    53    65    66    1
    54    93    94    1
    55    94    95    1
    56     1     2    1
    57     2     3    1
    58     4     3    2
    59    33    34    2
    60    33    32    1
    61     3     5   am
    62    35    32    1
    63    35    36    1
    64    37    36    1
    65    32    31    1
    66     5     6    1
    67    36    38    1
    68    18    19    1
    69    18    17    1
    70    19    13    1
    71     6     7    1
    72     6     9    1
    73    13     7   am
    74    13    14    1
    75     7     8    2
    76    17    14    1
    77    14    15    1
    78    10     9    1
    79    10    12    1
    80     9    11    1
    81    15    20   am
    82    15    16    2
    83    20    21    1
    84    27    26    1
    85    27    28    2
    86    25    26    1
    87    25    24    1
    88    30    28    1
    89    23    22    2
    90    24    21    1
    91    21    22    1
    92    28    29    1
