@<TRIPOS>MOLECULE
tmp/2on5B00.pdb
 135 133 0 0 0
SMALL
GASTEIGER

@<TRIPOS>ATOM
      1  N         21.3930   41.7300   35.0600 N.3     8  TYR8       -0.1227
      2  CA        21.6450   43.0630   34.5160 C.3     8  TYR8        0.1736
      3  C         21.9960   42.9290   33.0380 C.2     8  TYR8        0.2595
      4  O         21.8860   41.8430   32.4800 O.2     8  TYR8       -0.2718
      5  CB        22.7710   43.7550   35.3050 C.3     8  TYR8        0.0548
      6  CG        22.9200   45.2190   34.9820 C.ar    8  TYR8       -0.0200
      7  CD1       21.8700   46.1200   35.1850 C.ar    8  TYR8       -0.0009
      8  CD2       24.0910   45.6950   34.4130 C.ar    8  TYR8       -0.0009
      9  CE1       22.0050   47.4690   34.8410 C.ar    8  TYR8        0.0417
     10  CE2       24.2340   47.0220   34.0840 C.ar    8  TYR8        0.0417
     11  CZ        23.1940   47.8980   34.2820 C.ar    8  TYR8        0.1957
     12  OH        23.3800   49.2270   33.9600 O.3     8  TYR8       -0.2866
     13  N         22.3630   44.0380   32.3960 N.am    9  PHE9       -0.1976
     14  CA        22.8620   43.9880   31.0340 C.3     9  PHE9        0.1639
     15  C         24.2920   43.4890   30.9840 C.2     9  PHE9        0.2290
     16  O         24.9830   43.4240   32.0130 O.2     9  PHE9       -0.2864
     17  CB        22.8150   45.3710   30.4020 C.3     9  PHE9        0.0560
     18  CG        21.4400   45.9030   30.2260 C.ar    9  PHE9       -0.0200
     19  CD1       20.5750   45.3270   29.3000 C.ar    9  PHE9       -0.0042
     20  CD2       21.0020   46.9780   30.9960 C.ar    9  PHE9       -0.0042
     21  CE1       19.2870   45.8430   29.1030 C.ar    9  PHE9       -0.0003
     22  CE2       19.7120   47.4930   30.8370 C.ar    9  PHE9       -0.0003
     23  CZ        18.8560   46.9310   29.8760 C.ar    9  PHE9       -0.0000
     24  N         25.0570   50.0270   36.2650 N.3    14  LEU14      -0.1245
     25  CA        24.5610   50.0540   37.6440 C.3    14  LEU14       0.1561
     26  C         24.8840   48.8000   38.4470 C.2    14  LEU14       0.2260
     27  O         24.8050   48.8260   39.6790 O.2    14  LEU14      -0.2867
     28  CB        23.0340   50.2200   37.6430 C.3    14  LEU14       0.0270
     29  CG        22.3910   51.3730   36.8640 C.3    14  LEU14       0.0019
     30  CD1       20.8840   51.2610   36.9970 C.3    14  LEU14       0.0001
     31  CD2       22.8510   52.7240   37.3850 C.3    14  LEU14       0.0001
     32  N         16.8100   41.5310   26.5160 N.3    39  TRP39      -0.1241
     33  CA        16.2490   42.0450   27.7650 C.3    39  TRP39       0.1605
     34  C         14.7150   42.2470   27.7810 C.2    39  TRP39       0.2264
     35  O         14.0590   41.8170   28.7340 O.2    39  TRP39      -0.2867
     36  CB        17.0300   43.2850   28.2540 C.3    39  TRP39       0.0550
     37  CG        16.2160   44.2240   29.0970 C.ar   39  TRP39       0.0003
     38  CD1       15.8110   45.4880   28.7650 C.ar   39  TRP39       0.0946
     39  CD2       15.6660   43.9480   30.3900 C.ar   39  TRP39       0.0152
     40  NE1       15.0550   46.0280   29.7870 N.ar   39  TRP39      -0.2442
     41  CE2       14.9540   45.1040   30.7950 C.ar   39  TRP39       0.0810
     42  CE3       15.7180   42.8360   31.2540 C.ar   39  TRP39       0.0012
     43  CZ2       14.2930   45.1850   32.0210 C.ar   39  TRP39       0.0191
     44  CZ3       15.0460   42.9080   32.4730 C.ar   39  TRP39       0.0001
     45  CH2       14.3480   44.0870   32.8460 C.ar   39  TRP39       0.0015
     46  N         11.2480   41.8130   31.0120 N.3    43  LYS43      -0.1245
     47  CA        10.8580   42.9940   31.7990 C.3    43  LYS43       0.1561
     48  C          9.8350   42.6690   32.9070 C.2    43  LYS43       0.2260
     49  O         10.0110   43.0450   34.0730 O.2    43  LYS43      -0.2867
     50  CB        10.2910   44.0440   30.8440 C.3    43  LYS43       0.0271
     51  CG        10.0340   45.3840   31.4460 C.3    43  LYS43       0.0035
     52  CD         9.9330   46.4700   30.3140 C.3    43  LYS43       0.0206
     53  CE        10.3500   47.8290   30.8640 C.3    43  LYS43       0.1093
     54  NZ         9.7770   48.0700   32.2050 N.3    43  LYS43      -0.1314
     55  N         12.4920   46.6510   35.6760 N.3    50  GLN50      -0.1231
     56  CA        13.8550   47.1290   35.4070 C.3    50  GLN50       0.1698
     57  C         14.9270   46.2510   36.0660 C.2    50  GLN50       0.2592
     58  O         14.6090   45.3850   36.8970 O.2    50  GLN50      -0.2718
     59  CB        14.0190   48.6000   35.8500 C.3    50  GLN50       0.0381
     60  CG        13.2960   49.5900   34.8900 C.3    50  GLN50       0.0905
     61  CD        13.7780   51.0220   35.0120 C.2    50  GLN50       0.2608
     62  OE1       14.3640   51.5820   34.0760 O.2    50  GLN50      -0.2717
     63  NE2       13.5310   51.6260   36.1530 N.am   50  GLN50      -0.0878
     64  N         16.1760   46.4820   35.6530 N.am   51  ILE51      -0.1966
     65  CA        17.3750   45.8240   36.1930 C.3    51  ILE51       0.1712
     66  C         18.3930   46.9050   36.6410 C.2    51  ILE51       0.2458
     67  O         18.3960   47.9950   36.0700 O.2    51  ILE51      -0.2730
     68  CB        18.0080   44.8280   35.1560 C.3    51  ILE51       0.0289
     69  CG1       18.1370   45.4530   33.7430 C.3    51  ILE51       0.0022
     70  CG2       17.2220   43.5180   35.1540 C.3    51  ILE51       0.0023
     71  CD1       18.7840   44.5260   32.6900 C.3    51  ILE51       0.0001
     72  N         19.2990   46.5900   37.5970 N.am   52  PRO52      -0.2727
     73  CA        19.5910   45.2390   38.1160 C.3    52  PRO52       0.1402
     74  C         18.5710   44.7010   39.1080 C.2    52  PRO52       0.2269
     75  O         17.8670   45.4750   39.7430 O.2    52  PRO52      -0.2865
     76  CB        20.9670   45.4090   38.7910 C.3    52  PRO52       0.0296
     77  CG        20.9170   46.8450   39.3350 C.3    52  PRO52       0.0237
     78  CD        20.1900   47.6120   38.1910 C.3    52  PRO52       0.0939
     79  N         16.4240   47.6480   42.4980 N.3    63  GLN63      -0.1231
     80  CA        17.0350   48.9570   42.7810 C.3    63  GLN63       0.1698
     81  C         18.5040   48.8460   43.1920 C.2    63  GLN63       0.2593
     82  O         18.8220   48.3850   44.2890 O.2    63  GLN63      -0.2718
     83  CB        16.1740   49.7890   43.7970 C.3    63  GLN63       0.0381
     84  CG        14.8700   50.3420   43.1600 C.3    63  GLN63       0.0905
     85  CD        15.0980   51.5210   42.2220 C.2    63  GLN63       0.2608
     86  OE1       14.1570   52.0200   41.5870 O.2    63  GLN63      -0.2717
     87  NE2       16.3300   51.9850   42.1430 N.am   63  GLN63      -0.0878
     88  N         19.4050   49.3050   42.3100 N.am   64  SER64      -0.1938
     89  CA        20.8510   49.0800   42.4700 C.3    64  SER64       0.2055
     90  C         21.4140   49.5290   43.8390 C.2    64  SER64       0.2643
     91  O         22.2310   48.8040   44.4210 O.2    64  SER64      -0.2714
     92  CB        21.6420   49.7400   41.3260 C.3    64  SER64       0.2130
     93  OG        21.5580   51.1750   41.3920 O.3    64  SER64      -0.2179
     94  N         20.9750   50.6840   44.3630 N.am   65  PHE65      -0.1973
     95  CA        21.4710   51.1480   45.6840 C.3    65  PHE65       0.1639
     96  C         20.9110   50.3540   46.8520 C.2    65  PHE65       0.2290
     97  O         21.5940   50.1890   47.8670 O.2    65  PHE65      -0.2864
     98  CB        21.2750   52.6570   45.9070 C.3    65  PHE65       0.0560
     99  CG        22.1160   53.5300   44.9620 C.ar   65  PHE65      -0.0200
    100  CD1       21.6510   53.8300   43.6790 C.ar   65  PHE65      -0.0042
    101  CD2       23.3740   54.0080   45.3510 C.ar   65  PHE65      -0.0042
    102  CE1       22.4200   54.6160   42.7820 C.ar   65  PHE65      -0.0003
    103  CE2       24.1490   54.7850   44.4910 C.ar   65  PHE65      -0.0003
    104  CZ        23.6720   55.1220   43.2150 C.ar   65  PHE65      -0.0000
    105  N         24.2930   59.4230   43.1760 N.3    96  LYS96      -0.1245
    106  CA        23.1040   59.1520   42.3690 C.3    96  LYS96       0.1561
    107  C         22.5620   60.4140   41.6740 C.2    96  LYS96       0.2260
    108  O         22.1610   60.3470   40.4890 O.2    96  LYS96      -0.2867
    109  CB        22.0180   58.4650   43.1980 C.3    96  LYS96       0.0271
    110  CG        20.7410   58.1820   42.4310 C.3    96  LYS96       0.0035
    111  CD        19.7890   57.3730   43.3040 C.3    96  LYS96       0.0206
    112  CE        19.1010   56.3280   42.4590 C.3    96  LYS96       0.1093
    113  NZ        18.4530   55.3260   43.3200 N.3    96  LYS96      -0.1314
    114  N         23.0560   61.4670   32.8690 N.3   103  ARG103     -0.1245
    115  CA        22.3150   60.4090   32.1680 C.3   103  ARG103      0.1563
    116  C         22.3190   60.5060   30.6180 C.2   103  ARG103      0.2260
    117  O         22.5320   59.4940   29.9690 O.2   103  ARG103     -0.2867
    118  CB        20.8780   60.2810   32.6860 C.3   103  ARG103      0.0307
    119  CG        20.1110   59.1100   32.0520 C.3   103  ARG103      0.0489
    120  CD        18.7550   58.8720   32.7400 C.3   103  ARG103      0.2205
    121  NE        18.9080   57.9090   33.8420 N.pl3 103  ARG103     -0.0865
    122  CZ        18.7760   58.2000   35.1350 C.cat 103  ARG103      0.5346
    123  NH1       18.4420   59.4240   35.5180 N.pl3 103  ARG103      0.1354
    124  NH2       18.9480   57.2530   36.0450 N.pl3 103  ARG103      0.1354
    125  N         30.4280   49.9630   28.4100 N.3   206  PHE206     -0.1241
    126  CA        29.7430   50.6550   29.5120 C.3   206  PHE206      0.1605
    127  C         29.6210   49.7100   30.7210 C.2   206  PHE206      0.2264
    128  O         29.8630   48.4970   30.6100 O.2   206  PHE206     -0.2867
    129  CB        28.3530   51.1620   29.0820 C.3   206  PHE206      0.0534
    130  CG        27.2700   50.0980   29.1120 C.ar  206  PHE206     -0.0203
    131  CD1       26.4420   49.9620   30.2370 C.ar  206  PHE206     -0.0042
    132  CD2       27.0910   49.2320   28.0370 C.ar  206  PHE206     -0.0042
    133  CE1       25.4560   48.9860   30.2840 C.ar  206  PHE206     -0.0003
    134  CE2       26.0910   48.2380   28.0800 C.ar  206  PHE206     -0.0003
    135  CZ        25.2740   48.1210   29.2110 C.ar  206  PHE206     -0.0000
@<TRIPOS>BOND
     1    32    33    1
     2    33    34    1
     3    33    36    1
     4    34    35    2
     5   132   134   ar
     6   132   130   ar
     7   134   135   ar
     8    36    37    1
     9   125   126    1
    10    38    37   ar
    11    38    40   ar
    12   129   130    1
    13   129   126    1
    14    37    39   ar
    15    21    19   ar
    16    21    23   ar
    17   130   131   ar
    18   135   133   ar
    19    19    18   ar
    20   126   127    1
    21    40    41   ar
    22    23    22   ar
    23   117   116    2
    24    18    17    1
    25    18    20   ar
    26   131   133   ar
    27    52    53    1
    28    52    51    1
    29    39    41   ar
    30    39    42   ar
    31    17    14    1
    32   128   127    2
    33   116   115    1
    34    41    43   ar
    35    22    20   ar
    36    50    51    1
    37    50    47    1
    38    53    54    1
    39    15    14    1
    40    15    16    2
    41    46    47    1
    42    14    13    1
    43    42    44   ar
    44    47    48    1
    45    43    45   ar
    46   119   118    1
    47   119   120    1
    48   115   118    1
    49   115   114    1
    50    13     3   am
    51    44    45   ar
    52     4     3    2
    53    71    69    1
    54   120   121    1
    55    48    49    2
    56     3     2    1
    57    69    68    1
    58   121   122    2
    59    12    11    1
    60    62    61    2
    61    10    11   ar
    62    10     8   ar
    63    11     9   ar
    64     8     6   ar
    65     2     1    1
    66     2     5    1
    67     9     7   ar
    68    60    61    1
    69    60    59    1
    70     6     7   ar
    71     6     5    1
    72    61    63   am
    73   122   123    1
    74   122   124    1
    75    70    68    1
    76    68    65    1
    77    56    55    1
    78    56    59    1
    79    56    57    1
    80    64    57   am
    81    64    65    1
    82    57    58    2
    83    67    66    2
    84    65    66    1
    85    24    25    1
    86    66    72   am
    87    29    30    1
    88    29    31    1
    89    29    28    1
    90    72    73    1
    91    72    78    1
    92    28    25    1
    93    25    26    1
    94    73    76    1
    95    73    74    1
    96    78    77    1
    97    26    27    2
    98    76    77    1
    99    74    75    2
   100   108   107    2
   101    92    93    1
   102    92    89    1
   103    86    85    2
   104   107   106    1
   105    87    85   am
   106    85    84    1
   107    88    89    1
   108    88    81   am
   109   106   105    1
   110   106   109    1
   111   110   109    1
   112   110   111    1
   113   112   111    1
   114   112   113    1
   115    89    90    1
   116    79    80    1
   117    80    81    1
   118    80    83    1
   119   102   104   ar
   120   102   100   ar
   121    84    83    1
   122    81    82    2
   123   104   103   ar
   124   100    99   ar
   125    90    94   am
   126    90    91    2
   127    94    95    1
   128   103   101   ar
   129    99   101   ar
   130    99    98    1
   131    95    98    1
   132    95    96    1
   133    96    97    2
