@<TRIPOS>MOLECULE
tmp/2oncC06.pdb
 109 107 0 0 0
SMALL
GASTEIGER

@<TRIPOS>ATOM
      1  N         44.2690  -18.4710  -48.0200 N.3    82  GLN82      -0.1231
      2  CA        45.0900  -17.2990  -47.7260 C.3    82  GLN82       0.1698
      3  C         45.3220  -17.2560  -46.2020 C.2    82  GLN82       0.2592
      4  O         46.1860  -17.9900  -45.6920 O.2    82  GLN82      -0.2718
      5  CB        44.4970  -16.0060  -48.3070 C.3    82  GLN82       0.0381
      6  CG        45.4150  -14.7540  -48.2330 C.3    82  GLN82       0.0905
      7  CD        46.7330  -14.8870  -49.0060 C.2    82  GLN82       0.2608
      8  OE1       46.7500  -15.0000  -50.2350 O.2    82  GLN82      -0.2717
      9  NE2       47.8410  -14.8580  -48.2820 N.am   82  GLN82      -0.0878
     10  N         44.5330  -16.4640  -45.4780 N.am   83  TRP83      -0.1976
     11  CA        44.7140  -16.3100  -44.0350 C.3    83  TRP83       0.1640
     12  C         43.8410  -17.2740  -43.2220 C.2    83  TRP83       0.2290
     13  O         43.6440  -18.4160  -43.6440 O.2    83  TRP83      -0.2864
     14  CB        44.4830  -14.8560  -43.6430 C.3    83  TRP83       0.0576
     15  CG        45.3110  -13.8550  -44.4460 C.ar   83  TRP83       0.0006
     16  CD1       44.8800  -12.6640  -44.9590 C.ar   83  TRP83       0.0946
     17  CD2       46.6960  -13.9680  -44.8110 C.ar   83  TRP83       0.0152
     18  NE1       45.9090  -12.0230  -45.5990 N.ar   83  TRP83      -0.2442
     19  CE2       47.0340  -12.8020  -45.5290 C.ar   83  TRP83       0.0810
     20  CE3       47.6870  -14.9430  -44.5990 C.ar   83  TRP83       0.0012
     21  CZ2       48.3220  -12.5800  -46.0440 C.ar   83  TRP83       0.0191
     22  CZ3       48.9770  -14.7200  -45.1210 C.ar   83  TRP83       0.0001
     23  CH2       49.2760  -13.5460  -45.8280 C.ar   83  TRP83       0.0015
     24  N         44.9030   -4.8490  -55.5990 N.3   150  GLU150     -0.1231
     25  CA        45.5790   -5.7850  -54.7080 C.3   150  GLU150      0.1699
     26  C         46.3220   -5.0560  -53.5890 C.2   150  GLU150      0.2592
     27  O         47.1170   -4.1500  -53.8570 O.2   150  GLU150     -0.2718
     28  CB        46.5430   -6.6720  -55.4980 C.3   150  GLU150      0.0402
     29  CG        46.7970   -8.0310  -54.8450 C.3   150  GLU150      0.1161
     30  CD        48.0170   -8.7420  -55.4030 C.2   150  GLU150      0.3649
     31  OE1       49.1320   -8.1700  -55.3200 O.co2 150  GLU150     -0.2457
     32  OE2       47.8650   -9.8790  -55.9080 O.co2 150  GLU150     -0.2457
     33  N         46.0360   -5.4500  -52.3450 N.am  151  ASP151     -0.1974
     34  CA        46.6340   -4.8480  -51.1380 C.3   151  ASP151      0.1709
     35  C         46.3470   -3.3670  -50.9040 C.2   151  ASP151      0.2293
     36  O         47.0360   -2.7220  -50.1060 O.2   151  ASP151     -0.2864
     37  CB        48.1520   -5.0630  -51.1050 C.3   151  ASP151      0.1436
     38  CG        48.5330   -6.5180  -50.9890 C.2   151  ASP151      0.3671
     39  OD1       47.8960   -7.2960  -50.2630 O.co2 151  ASP151     -0.2456
     40  OD2       49.5870   -6.8990  -51.7010 O.co2 151  ASP151     -0.2456
     41  N         57.9510  -10.9130  -44.9710 N.3   197  TYR197     -0.1241
     42  CA        58.6500  -12.1020  -44.4870 C.3   197  TYR197      0.1605
     43  C         58.9370  -13.1110  -45.6010 C.2   197  TYR197      0.2264
     44  O         58.2480  -13.1280  -46.6330 O.2   197  TYR197     -0.2867
     45  CB        57.8710  -12.7610  -43.3440 C.3   197  TYR197      0.0534
     46  CG        56.4810  -13.2250  -43.7060 C.ar  197  TYR197     -0.0201
     47  CD1       56.2580  -14.5240  -44.1730 C.ar  197  TYR197     -0.0009
     48  CD2       55.3820  -12.3840  -43.5530 C.ar  197  TYR197     -0.0009
     49  CE1       54.9800  -14.9670  -44.4880 C.ar  197  TYR197      0.0417
     50  CE2       54.1020  -12.8200  -43.8630 C.ar  197  TYR197      0.0417
     51  CZ        53.9080  -14.1110  -44.3270 C.ar  197  TYR197      0.1957
     52  OH        52.6390  -14.5500  -44.6500 O.3   197  TYR197     -0.2866
     53  N         59.1370  -16.6300  -47.6040 N.3   199  PHE199     -0.1241
     54  CA        58.4160  -17.8740  -47.8040 C.3   199  PHE199      0.1605
     55  C         59.2620  -18.7540  -48.7130 C.2   199  PHE199      0.2264
     56  O         59.4780  -18.4160  -49.8780 O.2   199  PHE199     -0.2867
     57  CB        57.0380  -17.6390  -48.4110 C.3   199  PHE199      0.0534
     58  CG        56.1480  -18.8360  -48.3310 C.ar  199  PHE199     -0.0203
     59  CD1       56.0980  -19.7500  -49.3750 C.ar  199  PHE199     -0.0042
     60  CD2       55.3860  -19.0710  -47.1970 C.ar  199  PHE199     -0.0042
     61  CE1       55.2830  -20.8640  -49.3050 C.ar  199  PHE199     -0.0003
     62  CE2       54.5640  -20.1880  -47.1220 C.ar  199  PHE199     -0.0003
     63  CZ        54.5210  -21.0880  -48.1830 C.ar  199  PHE199     -0.0000
     64  N         60.7310  -16.3500  -51.6330 N.3   209  LYS209     -0.1231
     65  CA        59.7190  -15.3480  -51.9370 C.3   209  LYS209      0.1693
     66  C         59.4960  -14.3960  -50.7500 C.2   209  LYS209      0.2593
     67  O         59.3260  -14.8340  -49.6060 O.2   209  LYS209     -0.2718
     68  CB        58.4160  -16.0630  -52.2970 C.3   209  LYS209      0.0285
     69  CG        57.2120  -15.1640  -52.5200 C.3   209  LYS209      0.0035
     70  CD        55.9570  -15.9830  -52.8260 C.3   209  LYS209      0.0206
     71  CE        56.0800  -16.7220  -54.1600 C.3   209  LYS209      0.1093
     72  NZ        55.3500  -18.0380  -54.1500 N.3   209  LYS209     -0.1314
     73  N         59.5010  -13.0970  -51.0220 N.am  210  THR210     -0.1939
     74  CA        59.1390  -12.1240  -50.0030 C.3   210  THR210      0.2028
     75  C         57.6400  -11.8270  -50.0580 C.2   210  THR210      0.2642
     76  O         57.1380  -11.2410  -51.0290 O.2   210  THR210     -0.2714
     77  CB        59.9620  -10.8380  -50.1190 C.3   210  THR210      0.1808
     78  OG1       61.3410  -11.1670  -49.9620 O.3   210  THR210     -0.2208
     79  CG2       59.5950   -9.8460  -49.0360 C.3   210  THR210      0.0379
     80  N         56.9500  -12.2490  -48.9990 N.am  211  VAL211     -0.1963
     81  CA        55.5220  -12.0210  -48.8250 C.3   211  VAL211      0.1727
     82  C         55.2850  -10.6350  -48.2080 C.2   211  VAL211      0.2616
     83  O         56.0480  -10.1800  -47.3540 O.2   211  VAL211     -0.2715
     84  CB        54.9100  -13.1440  -47.9630 C.3   211  VAL211      0.0290
     85  CG1       53.4880  -12.8210  -47.5300 C.3   211  VAL211      0.0023
     86  CG2       54.9540  -14.4510  -48.7290 C.3   211  VAL211      0.0023
     87  N         54.2310   -9.9710  -48.6670 N.am  212  ARG212     -0.1963
     88  CA        53.9030   -8.6100  -48.2610 C.3   212  ARG212      0.1729
     89  C         52.4030   -8.5170  -48.0010 C.2   212  ARG212      0.2616
     90  O         51.6100   -9.0200  -48.7850 O.2   212  ARG212     -0.2715
     91  CB        54.3030   -7.6240  -49.3630 C.3   212  ARG212      0.0348
     92  CG        55.8050   -7.5820  -49.6370 C.3   212  ARG212      0.0492
     93  CD        56.1740   -6.7720  -50.8850 C.3   212  ARG212      0.2205
     94  NE        57.6030   -6.4450  -50.8680 N.pl3 212  ARG212     -0.0865
     95  CZ        58.5710   -7.2290  -51.3480 C.cat 212  ARG212      0.5346
     96  NH1       59.8510   -6.8490  -51.2660 N.pl3 212  ARG212      0.1354
     97  NH2       58.2620   -8.3970  -51.9080 N.pl3 212  ARG212      0.1354
     98  N         52.0300   -7.8920  -46.8860 N.am  213  VAL213     -0.1977
     99  CA        50.6320   -7.7450  -46.4740 C.3   213  VAL213      0.1596
    100  C         50.4960   -6.4440  -45.6740 C.2   213  VAL213      0.2287
    101  O         51.3350   -6.1580  -44.8070 O.2   213  VAL213     -0.2864
    102  CB        50.1580   -8.9040  -45.5270 C.3   213  VAL213      0.0276
    103  CG1       48.6410   -9.0240  -45.5420 C.3   213  VAL213      0.0022
    104  CG2       50.7950  -10.2430  -45.8820 C.3   213  VAL213      0.0022
    105  N         56.3170  -18.5140  -41.4160 N.3   664  ALA664     -0.1245
    106  CA        55.3710  -17.8390  -42.3010 C.3   664  ALA664      0.1562
    107  C         54.1470  -17.3680  -41.5270 C.2   664  ALA664      0.2260
    108  O         53.0420  -17.2690  -42.0770 O.2   664  ALA664     -0.2867
    109  CB        54.9790  -18.7440  -43.4380 C.3   664  ALA664      0.0290
@<TRIPOS>BOND
     1    32    30   ar
     2    24    25    1
     3    28    29    1
     4    28    25    1
     5    30    31   ar
     6    30    29    1
     7    25    26    1
     8    71    72    1
     9    71    70    1
    10    27    26    2
    11    26    33   am
    12    70    69    1
    13    69    68    1
    14    33    34    1
    15    68    65    1
    16    65    64    1
    17    65    66    1
    18    97    95    1
    19    40    38   ar
    20    95    96    1
    21    95    94    2
    22    34    37    1
    23    34    35    1
    24    37    38    1
    25    76    75    2
    26    73    66   am
    27    73    74    1
    28    38    39   ar
    29    35    36    2
    30    93    94    1
    31    93    92    1
    32    66    67    2
    33     8     7    2
    34    77    74    1
    35    77    78    1
    36    77    79    1
    37    75    74    1
    38    75    80   am
    39    56    55    2
    40    92    91    1
    41    59    61   ar
    42    59    58   ar
    43    91    88    1
    44    61    63   ar
    45     7     9   am
    46     7     6    1
    47    80    81    1
    48    81    82    1
    49    81    84    1
    50    90    89    2
    51    86    84    1
    52    55    54    1
    53    87    88    1
    54    87    82   am
    55    57    58    1
    56    57    54    1
    57    58    60   ar
    58     5     6    1
    59     5     2    1
    60    88    89    1
    61    82    83    2
    62    63    62   ar
    63     1     2    1
    64    89    98   am
    65    84    85    1
    66    54    53    1
    67     2     3    1
    68    60    62   ar
    69    98    99    1
    70    44    43    2
    71    99   100    1
    72    99   102    1
    73     3     4    2
    74     3    10   am
    75    21    23   ar
    76    21    19   ar
    77   104   102    1
    78    23    22   ar
    79   100   101    2
    80    43    42    1
    81    18    19   ar
    82    18    16   ar
    83   103   102    1
    84    19    17   ar
    85    10    11    1
    86    22    20   ar
    87    41    42    1
    88    16    15   ar
    89    17    20   ar
    90    17    15   ar
    91    52    51    1
    92    49    51   ar
    93    49    47   ar
    94    42    45    1
    95    15    14    1
    96    51    50   ar
    97    47    46   ar
    98    11    14    1
    99    11    12    1
   100    50    48   ar
   101    46    48   ar
   102    46    45    1
   103    13    12    2
   104   109   106    1
   105   106   107    1
   106   106   105    1
   107   108   107    2
