@<TRIPOS>MOLECULE
tmp/2oncC05.pdb
 187 183 0 0 0
SMALL
GASTEIGER

@<TRIPOS>ATOM
      1  N         43.3300  -16.8430  -42.0660 N.3    84  ARG84      -0.1245
      2  CA        42.5000  -17.7180  -41.2230 C.3    84  ARG84       0.1563
      3  C         41.1650  -18.1040  -41.8770 C.2    84  ARG84       0.2260
      4  O         40.7680  -19.2750  -41.8230 O.2    84  ARG84      -0.2867
      5  CB        42.2430  -17.1130  -39.8410 C.3    84  ARG84       0.0307
      6  CG        41.6110  -18.1040  -38.8530 C.3    84  ARG84       0.0489
      7  CD        41.1360  -17.4590  -37.5610 C.3    84  ARG84       0.2205
      8  NE        42.2230  -16.8850  -36.7600 N.pl3  84  ARG84      -0.0865
      9  CZ        42.8480  -17.4960  -35.7550 C.cat  84  ARG84       0.5346
     10  NH1       42.5260  -18.7280  -35.4000 N.pl3  84  ARG84       0.1354
     11  NH2       43.8080  -16.8650  -35.0950 N.pl3  84  ARG84       0.1354
     12  N         40.8040  -10.9880  -39.2730 N.3   164  GLU164     -0.1231
     13  CA        41.1820  -11.6610  -38.0470 C.3   164  GLU164      0.1699
     14  C         40.4880  -11.1130  -36.7930 C.2   164  GLU164      0.2592
     15  O         40.0330  -11.8970  -35.9630 O.2   164  GLU164     -0.2718
     16  CB        42.7150  -11.6100  -37.9020 C.3   164  GLU164      0.0402
     17  CG        43.2930  -12.1710  -36.5990 C.3   164  GLU164      0.1161
     18  CD        43.2290  -13.6960  -36.4940 C.2   164  GLU164      0.3649
     19  OE1       43.5160  -14.2180  -35.3910 O.co2 164  GLU164     -0.2457
     20  OE2       42.8980  -14.3650  -37.5020 O.co2 164  GLU164     -0.2457
     21  N         40.3770   -9.7860  -36.6830 N.am  165  GLU165     -0.1979
     22  CA        40.0440   -9.1400  -35.4010 C.3   165  GLU165      0.1602
     23  C         38.6810   -8.4650  -35.2940 C.2   165  GLU165      0.2287
     24  O         38.2110   -8.1850  -34.1880 O.2   165  GLU165     -0.2864
     25  CB        41.1070   -8.0920  -35.0380 C.3   165  GLU165      0.0415
     26  CG        42.5650   -8.5610  -35.1090 C.3   165  GLU165      0.1163
     27  CD        42.9410   -9.6010  -34.0580 C.2   165  GLU165      0.3649
     28  OE1       42.0440  -10.1930  -33.4140 O.co2 165  GLU165     -0.2457
     29  OE2       44.1540   -9.8200  -33.8800 O.co2 165  GLU165     -0.2457
     30  N         35.8510  -11.7470  -38.1580 N.3   168  SER168     -0.1217
     31  CA        36.0960  -13.1940  -38.1210 C.3   168  SER168      0.1889
     32  C         35.6490  -13.8340  -39.4270 C.2   168  SER168      0.2288
     33  O         34.9890  -14.8710  -39.4180 O.2   168  SER168     -0.2866
     34  CB        35.3690  -13.8420  -36.9400 C.3   168  SER168      0.2089
     35  OG        35.8540  -13.3450  -35.7070 O.3   168  SER168     -0.2183
     36  N         34.5050   -8.7990  -27.5410 N.3   316  PHE316     -0.1241
     37  CA        35.5790   -8.5420  -28.5100 C.3   316  PHE316      0.1605
     38  C         35.1630   -7.4300  -29.4580 C.2   316  PHE316      0.2264
     39  O         36.0050   -6.7250  -30.0200 O.2   316  PHE316     -0.2867
     40  CB        35.9390   -9.8050  -29.2870 C.3   316  PHE316      0.0534
     41  CG        36.6230  -10.8380  -28.4510 C.ar  316  PHE316     -0.0203
     42  CD1       38.0140  -10.8320  -28.3190 C.ar  316  PHE316     -0.0042
     43  CD2       35.8840  -11.8020  -27.7690 C.ar  316  PHE316     -0.0042
     44  CE1       38.6640  -11.7800  -27.5310 C.ar  316  PHE316     -0.0003
     45  CE2       36.5160  -12.7530  -26.9830 C.ar  316  PHE316     -0.0003
     46  CZ        37.9180  -12.7420  -26.8600 C.ar  316  PHE316     -0.0000
     47  N         47.9060  -22.7720  -20.5070 N.3   503  VAL503     -0.1231
     48  CA        47.4750  -21.3720  -20.3770 C.3   503  VAL503      0.1692
     49  C         47.1080  -20.6620  -21.6830 C.2   503  VAL503      0.2592
     50  O         47.7200  -20.8800  -22.7240 O.2   503  VAL503     -0.2718
     51  CB        48.5080  -20.5120  -19.5690 C.3   503  VAL503      0.0266
     52  CG1       49.8480  -20.4490  -20.2520 C.3   503  VAL503      0.0020
     53  CG2       47.9940  -19.1020  -19.3350 C.3   503  VAL503      0.0020
     54  N         46.0620  -19.8420  -21.5930 N.am  504  TYR504     -0.1976
     55  CA        45.6850  -18.8820  -22.6090 C.3   504  TYR504      0.1639
     56  C         45.6890  -17.5260  -21.8870 C.2   504  TYR504      0.2290
     57  O         46.5790  -16.6930  -22.1200 O.2   504  TYR504     -0.2864
     58  CB        44.3220  -19.2600  -23.2110 C.3   504  TYR504      0.0560
     59  CG        43.6390  -18.2480  -24.1300 C.ar  504  TYR504     -0.0198
     60  CD1       44.2460  -17.0320  -24.4820 C.ar  504  TYR504     -0.0009
     61  CD2       42.3870  -18.5320  -24.6750 C.ar  504  TYR504     -0.0009
     62  CE1       43.6090  -16.1270  -25.3180 C.ar  504  TYR504      0.0417
     63  CE2       41.7440  -17.6300  -25.5230 C.ar  504  TYR504      0.0417
     64  CZ        42.3590  -16.4320  -25.8360 C.ar  504  TYR504      0.1957
     65  OH        41.7230  -15.5470  -26.6820 O.3   504  TYR504     -0.2866
     66  N         39.4170  -21.0950  -20.0860 N.3   511  LYS511     -0.1245
     67  CA        40.1090  -22.3640  -20.2220 C.3   511  LYS511      0.1561
     68  C         39.5690  -23.3810  -19.2250 C.2   511  LYS511      0.2260
     69  O         39.9410  -24.5600  -19.2720 O.2   511  LYS511     -0.2867
     70  CB        41.6200  -22.1790  -20.0730 C.3   511  LYS511      0.0271
     71  CG        42.3010  -21.5510  -21.2870 C.3   511  LYS511      0.0035
     72  CD        42.5400  -22.5470  -22.4560 C.3   511  LYS511      0.0206
     73  CE        43.8100  -23.3600  -22.2620 C.3   511  LYS511      0.1093
     74  NZ        43.9890  -24.2910  -23.4190 N.3   511  LYS511     -0.1314
     75  N         49.9850  -21.1130  -26.2620 N.3   586  TRP586     -0.1227
     76  CA        50.0540  -20.7010  -27.6540 C.3   586  TRP586      0.1737
     77  C         49.4670  -19.2870  -27.7570 C.2   586  TRP586      0.2596
     78  O         48.5090  -18.9690  -27.0510 O.2   586  TRP586     -0.2718
     79  CB        49.2020  -21.6650  -28.4630 C.3   586  TRP586      0.0564
     80  CG        49.5710  -21.8350  -29.9000 C.ar  586  TRP586      0.0003
     81  CD1       49.6190  -20.8640  -30.8700 C.ar  586  TRP586      0.0946
     82  CD2       49.8840  -23.0690  -30.5530 C.ar  586  TRP586      0.0152
     83  NE1       49.9630  -21.4200  -32.0750 N.ar  586  TRP586     -0.2442
     84  CE2       50.1340  -22.7710  -31.9120 C.ar  586  TRP586      0.0810
     85  CE3       49.9920  -24.4000  -30.1180 C.ar  586  TRP586      0.0012
     86  CZ2       50.4770  -23.7590  -32.8500 C.ar  586  TRP586      0.0191
     87  CZ3       50.3510  -25.3820  -31.0510 C.ar  586  TRP586      0.0001
     88  CH2       50.5880  -25.0500  -32.4020 C.ar  586  TRP586      0.0015
     89  N         50.0410  -18.4440  -28.6170 N.am  587  SER587     -0.1938
     90  CA        49.5210  -17.0820  -28.8690 C.3   587  SER587      0.2055
     91  C         49.6030  -16.2100  -27.6090 C.2   587  SER587      0.2643
     92  O         50.7030  -15.9630  -27.1050 O.2   587  SER587     -0.2714
     93  CB        48.0870  -17.1220  -29.4150 C.3   587  SER587      0.2130
     94  OG        47.9350  -18.1330  -30.3950 O.3   587  SER587     -0.2179
     95  N         48.4640  -15.7490  -27.0910 N.am  588  TYR588     -0.1973
     96  CA        48.4800  -15.0280  -25.8110 C.3   588  TYR588      0.1639
     97  C         49.0480  -15.9190  -24.6940 C.2   588  TYR588      0.2290
     98  O         49.7550  -15.4450  -23.8000 O.2   588  TYR588     -0.2864
     99  CB        47.0930  -14.5030  -25.4400 C.3   588  TYR588      0.0560
    100  CG        47.1250  -13.3650  -24.4470 C.ar  588  TYR588     -0.0198
    101  CD1       46.9150  -12.0460  -24.8560 C.ar  588  TYR588     -0.0009
    102  CD2       47.3630  -13.6080  -23.0870 C.ar  588  TYR588     -0.0009
    103  CE1       46.9400  -10.9910  -23.9280 C.ar  588  TYR588      0.0417
    104  CE2       47.3950  -12.5770  -22.1610 C.ar  588  TYR588      0.0417
    105  CZ        47.1850  -11.2740  -22.5800 C.ar  588  TYR588      0.1957
    106  OH        47.2330  -10.2710  -21.6410 O.3   588  TYR588     -0.2866
    107  N         53.4850  -13.5670  -28.3900 N.3   613  VAL613     -0.1245
    108  CA        53.7130  -12.1260  -28.4650 C.3   613  VAL613      0.1561
    109  C         54.8840  -11.8730  -27.5080 C.2   613  VAL613      0.2260
    110  O         55.0000  -12.5260  -26.4580 O.2   613  VAL613     -0.2867
    111  CB        52.4530  -11.3170  -28.0360 C.3   613  VAL613      0.0252
    112  CG1       52.7580   -9.8190  -27.8130 C.3   613  VAL613      0.0019
    113  CG2       51.3590  -11.4620  -29.0710 C.3   613  VAL613      0.0019
    114  N         54.0210   -5.7820  -27.1970 N.3   616  TRP616     -0.1241
    115  CA        52.7320   -5.3800  -27.7580 C.3   616  TRP616      0.1605
    116  C         52.7780   -4.4690  -28.9850 C.2   616  TRP616      0.2264
    117  O         51.8790   -4.5350  -29.8240 O.2   616  TRP616     -0.2867
    118  CB        51.7930   -4.8690  -26.6650 C.3   616  TRP616      0.0550
    119  CG        51.3390   -5.9970  -25.8150 C.ar  616  TRP616      0.0003
    120  CD1       51.6650   -6.2310  -24.5090 C.ar  616  TRP616      0.0946
    121  CD2       50.5190   -7.0900  -26.2250 C.ar  616  TRP616      0.0152
    122  NE1       51.0730   -7.3910  -24.0700 N.ar  616  TRP616     -0.2442
    123  CE2       50.3640   -7.9390  -25.1060 C.ar  616  TRP616      0.0810
    124  CE3       49.8890   -7.4320  -27.4280 C.ar  616  TRP616      0.0012
    125  CZ2       49.6100   -9.1150  -25.1600 C.ar  616  TRP616      0.0191
    126  CZ3       49.1440   -8.5920  -27.4820 C.ar  616  TRP616      0.0001
    127  CH2       49.0060   -9.4220  -26.3550 C.ar  616  TRP616      0.0015
    128  N         52.3030   -6.4200  -32.2510 N.3   619  TYR619     -0.1241
    129  CA        51.0540   -7.0840  -32.6000 C.3   619  TYR619      0.1605
    130  C         50.0590   -6.1060  -33.2510 C.2   619  TYR619      0.2264
    131  O         50.2880   -4.8970  -33.2450 O.2   619  TYR619     -0.2867
    132  CB        50.4670   -7.8530  -31.3930 C.3   619  TYR619      0.0534
    133  CG        49.4790   -8.9130  -31.8180 C.ar  619  TYR619     -0.0201
    134  CD1       49.8740   -9.9590  -32.6540 C.ar  619  TYR619     -0.0009
    135  CD2       48.1540   -8.8610  -31.4030 C.ar  619  TYR619     -0.0009
    136  CE1       48.9720  -10.9230  -33.0700 C.ar  619  TYR619      0.0417
    137  CE2       47.2500   -9.8200  -31.8060 C.ar  619  TYR619      0.0417
    138  CZ        47.6590  -10.8400  -32.6460 C.ar  619  TYR619      0.1957
    139  OH        46.7540  -11.7840  -33.0580 O.3   619  TYR619     -0.2866
    140  N         43.2430   -5.6480  -31.9890 N.3   623  TYR623     -0.1241
    141  CA        43.3000   -6.4610  -30.7910 C.3   623  TYR623      0.1605
    142  C         44.0520   -5.7260  -29.6750 C.2   623  TYR623      0.2264
    143  O         43.5100   -5.4790  -28.6000 O.2   623  TYR623     -0.2867
    144  CB        43.9660   -7.8020  -31.1030 C.3   623  TYR623      0.0534
    145  CG        44.0190   -8.7420  -29.9160 C.ar  623  TYR623     -0.0201
    146  CD1       42.9750   -9.6390  -29.6630 C.ar  623  TYR623     -0.0009
    147  CD2       45.1070   -8.7230  -29.0360 C.ar  623  TYR623     -0.0009
    148  CE1       43.0170  -10.4970  -28.5750 C.ar  623  TYR623      0.0417
    149  CE2       45.1630   -9.5720  -27.9360 C.ar  623  TYR623      0.0417
    150  CZ        44.1190  -10.4580  -27.7150 C.ar  623  TYR623      0.1957
    151  OH        44.1800  -11.2980  -26.6320 O.3   623  TYR623     -0.2866
    152  N         42.6610   -2.4760  -28.1800 N.3   626  ARG626     -0.1245
    153  CA        41.4100   -2.7200  -27.4690 C.3   626  ARG626      0.1563
    154  C         41.6650   -2.7510  -25.9610 C.2   626  ARG626      0.2260
    155  O         40.8590   -2.2390  -25.1810 O.2   626  ARG626     -0.2867
    156  CB        40.7720   -4.0250  -27.9300 C.3   626  ARG626      0.0307
    157  CG        39.3140   -4.1980  -27.5420 C.3   626  ARG626      0.0489
    158  CD        38.8260   -5.5770  -27.9500 C.3   626  ARG626      0.2205
    159  NE        38.7520   -5.7380  -29.4070 N.pl3 626  ARG626     -0.0865
    160  CZ        39.0300   -6.8680  -30.0520 C.cat 626  ARG626      0.5346
    161  NH1       39.4390   -7.9360  -29.3880 N.pl3 626  ARG626      0.1354
    162  NH2       38.9220   -6.9280  -31.3680 N.pl3 626  ARG626      0.1354
    163  N         50.1910  -13.6980  -38.4930 N.3   667  ASN667     -0.1225
    164  CA        49.4330  -13.2040  -37.3560 C.3   667  ASN667      0.1785
    165  C         50.3900  -12.6580  -36.2950 C.2   667  ASN667      0.2597
    166  O         50.4780  -11.4390  -36.0850 O.2   667  ASN667     -0.2718
    167  CB        48.5630  -14.3340  -36.8000 C.3   667  ASN667      0.1169
    168  CG        47.4080  -13.8370  -35.9440 C.2   667  ASN667      0.2627
    169  OD1       46.3340  -14.4360  -35.9460 O.2   667  ASN667     -0.2716
    170  ND2       47.6230  -12.7610  -35.1980 N.am  667  ASN667     -0.0877
    171  N         51.0920  -13.5620  -35.6210 N.am  668  VAL668     -0.1980
    172  CA        52.1350  -13.1760  -34.6870 C.3   668  VAL668      0.1595
    173  C         53.3910  -13.4090  -35.4760 C.2   668  VAL668      0.2287
    174  O         53.8130  -14.5490  -35.6580 O.2   668  VAL668     -0.2864
    175  CB        52.1510  -14.0290  -33.3840 C.3   668  VAL668      0.0276
    176  CG1       53.2790  -13.5880  -32.4690 C.3   668  VAL668      0.0022
    177  CG2       50.8370  -13.9250  -32.6550 C.3   668  VAL668      0.0022
    178  N         50.4570  -19.3230  -38.1710 N.3   697  HIS697     -0.1241
    179  CA        50.1540  -19.2580  -36.7390 C.3   697  HIS697      0.1621
    180  C         49.5300  -20.5310  -36.1520 C.2   697  HIS697      0.2264
    181  O         49.5070  -20.7080  -34.9380 O.2   697  HIS697     -0.2867
    182  CB        49.2930  -18.0280  -36.4180 C.3   697  HIS697      0.0745
    183  CG        49.1930  -17.7280  -34.9540 C.ar  697  HIS697      0.0817
    184  ND1       50.2880  -17.3930  -34.1840 N.ar  697  HIS697     -0.2268
    185  CD2       48.1270  -17.7040  -34.1210 C.ar  697  HIS697      0.1154
    186  CE1       49.9020  -17.1830  -32.9390 C.ar  697  HIS697      0.1986
    187  NE2       48.5950  -17.3680  -32.8730 N.ar  697  HIS697     -0.2212
@<TRIPOS>BOND
     1     1     2    1
     2     3     4    2
     3     3     2    1
     4     2     5    1
     5     5     6    1
     6    32    33    2
     7    32    31    1
     8    12    13    1
     9     6     7    1
    10   163   164    1
    11   178   179    1
    12    30    31    1
    13    31    34    1
    14    13    16    1
    15    13    14    1
    16    16    17    1
    17     7     8    1
    18    20    18   ar
    19   164   167    1
    20   164   165    1
    21    34    35    1
    22   167   168    1
    23    14    21   am
    24    14    15    2
    25     8     9    2
    26   179   182    1
    27   179   180    1
    28    21    22    1
    29    17    18    1
    30    18    19   ar
    31   182   183    1
    32   165   166    2
    33   165   171   am
    34   180   181    2
    35   169   168    2
    36   168   170   am
    37     9    10    1
    38     9    11    1
    39   174   173    2
    40   171   172    1
    41   173   172    1
    42    22    23    1
    43    22    25    1
    44    23    24    2
    45    26    25    1
    46    26    27    1
    47   183   184   ar
    48   183   185   ar
    49   172   175    1
    50   184   186   ar
    51   185   187   ar
    52    27    29   ar
    53    27    28   ar
    54   175   177    1
    55   175   176    1
    56   130   131    2
    57   130   129    1
    58   136   134   ar
    59   136   138   ar
    60   139   138    1
    61   186   187   ar
    62    86    88   ar
    63    86    84   ar
    64   134   133   ar
    65   138   137   ar
    66   129   128    1
    67   129   132    1
    68    88    87   ar
    69    83    84   ar
    70    83    81   ar
    71   140   141    1
    72    84    82   ar
    73   133   135   ar
    74   133   132    1
    75   137   135   ar
    76   162   160    1
    77   144   141    1
    78   144   145    1
    79    87    85   ar
    80    81    80   ar
    81   141   142    1
    82    82    85   ar
    83    82    80   ar
    84    94    93    1
    85   160   159    2
    86   160   161    1
    87    39    38    2
    88   145   146   ar
    89   145   147   ar
    90    80    79    1
    91   117   116    2
    92   142   143    2
    93   146   148   ar
    94    38    37    1
    95    93    90    1
    96   159   158    1
    97    40    37    1
    98    40    41    1
    99   113   111    1
   100   147   149   ar
   101   116   115    1
   102    90    89    1
   103    90    91    1
   104    89    77   am
   105   148   150   ar
   106    37    36    1
   107   108   107    1
   108   108   111    1
   109   108   109    1
   110    79    76    1
   111    41    42   ar
   112    41    43   ar
   113    42    44   ar
   114   152   153    1
   115   111   112    1
   116   158   157    1
   117   149   150   ar
   118   156   157    1
   119   156   153    1
   120    43    45   ar
   121   115   114    1
   122   115   118    1
   123    77    76    1
   124    77    78    2
   125   150   151    1
   126    76    75    1
   127    91    92    2
   128    91    95   am
   129    44    46   ar
   130   109   110    2
   131   126   124   ar
   132   126   127   ar
   133   153   154    1
   134   124   121   ar
   135    95    96    1
   136    45    46   ar
   137    65    64    1
   138   118   119    1
   139   127   125   ar
   140   121   119   ar
   141   121   123   ar
   142   154   155    2
   143    64    63   ar
   144    64    62   ar
   145   119   120   ar
   146    96    99    1
   147    96    97    1
   148    63    61   ar
   149    99   100    1
   150    62    60   ar
   151   125   123   ar
   152   123   122   ar
   153   101   100   ar
   154   101   103   ar
   155    97    98    2
   156    61    59   ar
   157   120   122   ar
   158    60    59   ar
   159   100   102   ar
   160    59    58    1
   161   103   105   ar
   162    74    73    1
   163    58    55    1
   164   102   104   ar
   165    50    49    2
   166    55    56    1
   167    55    54    1
   168   105   104   ar
   169   105   106    1
   170    72    73    1
   171    72    71    1
   172    57    56    2
   173    49    54   am
   174    49    48    1
   175    71    70    1
   176    47    48    1
   177    48    51    1
   178    52    51    1
   179    67    66    1
   180    67    70    1
   181    67    68    1
   182    51    53    1
   183    69    68    2
