@<TRIPOS>MOLECULE
tmp/2onfB00.pdb
 111 106 0 0 0
SMALL
GASTEIGER

@<TRIPOS>ATOM
      1  N         17.1510    7.6500   13.0600 N.3    53  CYS53      -0.1235
      2  CA        16.1080    8.2780   12.2380 C.3    53  CYS53       0.1677
      3  C         15.2290    7.2510   11.5180 C.2    53  CYS53       0.2270
      4  O         14.0150    7.4150   11.4900 O.2    53  CYS53      -0.2867
      5  CB        16.7140    9.2730   11.2660 C.3    53  CYS53       0.0956
      6  SG        15.5650   10.2640   10.3420 S.3    53  CYS53      -0.0801
      7  N         12.9230    5.9390   14.3970 N.3    56  THR56      -0.1203
      8  CA        11.8670    6.9360   14.6870 C.3    56  THR56       0.1994
      9  C         10.8350    7.1140   13.5380 C.2    56  THR56       0.2618
     10  O          9.6270    7.3370   13.8210 O.2    56  THR56      -0.2717
     11  CB        12.4210    8.2910   15.1910 C.3    56  THR56       0.1784
     12  OG1       13.1910    8.9360   14.1770 O.3    56  THR56      -0.2211
     13  CG2       13.2520    8.0970   16.4930 C.3    56  THR56       0.0376
     14  N         11.2390    7.0100   12.2590 N.am   57  THR57      -0.1952
     15  CA        10.2940    7.0410   11.1730 C.3    57  THR57       0.1897
     16  C          9.4320    5.7930   11.2020 C.2    57  THR57       0.2313
     17  O          8.2130    5.8770   11.0260 O.2    57  THR57      -0.2863
     18  CB        10.9840    7.1820    9.7910 C.3    57  THR57       0.1794
     19  OG1       11.9470    8.2300    9.8230 O.3    57  THR57      -0.2208
     20  CG2       10.0070    7.4340    8.6470 C.3    57  THR57       0.0378
     21  N          6.5010    5.9680   13.7140 N.3    60  GLU60      -0.1231
     22  CA         5.3090    6.6130   13.1750 C.3    60  GLU60       0.1699
     23  C          4.4190    5.6220   12.4370 C.2    60  GLU60       0.2592
     24  O          3.2000    5.5720   12.6580 O.2    60  GLU60      -0.2718
     25  CB         5.6740    7.7930   12.2520 C.3    60  GLU60       0.0402
     26  CG         4.4880    8.5130   11.6080 C.3    60  GLU60       0.1161
     27  CD         3.5520    9.2000   12.6000 C.2    60  GLU60       0.3649
     28  OE1        3.9960    9.5520   13.7250 O.co2  60  GLU60      -0.2457
     29  OE2        2.3130    9.3140   12.2900 O.co2  60  GLU60      -0.2457
     30  N          4.9960    4.8930   11.4950 N.am   61  PHE61      -0.1976
     31  CA         4.2260    3.9240   10.7290 C.3    61  PHE61       0.1639
     32  C          3.6790    2.7740   11.5680 C.2    61  PHE61       0.2290
     33  O          2.5660    2.3100   11.3160 O.2    61  PHE61      -0.2864
     34  CB         4.9950    3.4200    9.5190 C.3    61  PHE61       0.0560
     35  CG         5.1750    4.4660    8.4930 C.ar   61  PHE61      -0.0200
     36  CD1        4.0990    4.9290    7.7510 C.ar   61  PHE61      -0.0042
     37  CD2        6.4080    5.0880    8.3460 C.ar   61  PHE61      -0.0042
     38  CE1        4.2600    5.9840    6.8330 C.ar   61  PHE61      -0.0003
     39  CE2        6.5670    6.1240    7.4190 C.ar   61  PHE61      -0.0003
     40  CZ         5.4760    6.5630    6.6600 C.ar   61  PHE61      -0.0000
     41  N          0.6880    4.1470   13.1450 N.3    64  ARG64      -0.1245
     42  CA        -0.3490    4.3320   12.1480 C.3    64  ARG64       0.1563
     43  C         -0.9900    3.0240   11.6980 C.2    64  ARG64       0.2260
     44  O         -2.1740    3.0020   11.3920 O.2    64  ARG64      -0.2867
     45  CB         0.1570    5.0700   10.9130 C.3    64  ARG64       0.0307
     46  CG         0.3850    6.5430   11.1150 C.3    64  ARG64       0.0489
     47  CD         0.9300    7.1310    9.8880 C.3    64  ARG64       0.2205
     48  NE         0.9270    8.6010    9.9470 N.pl3  64  ARG64      -0.0865
     49  CZ         0.3530    9.3900    9.0660 C.cat  64  ARG64       0.5346
     50  NH1       -0.3000    8.9160    8.0240 N.pl3  64  ARG64       0.1354
     51  NH2        0.4620   10.6930    9.2160 N.pl3  64  ARG64       0.1354
     52  N          5.7500   -3.5560    4.3330 N.3   110  ARG110     -0.1245
     53  CA         5.2760   -2.1970    4.0090 C.3   110  ARG110      0.1563
     54  C          5.7900   -1.1190    4.9540 C.2   110  ARG110      0.2260
     55  O          6.2460   -0.0760    4.5420 O.2   110  ARG110     -0.2867
     56  CB         3.7440   -2.2070    4.0130 C.3   110  ARG110      0.0307
     57  CG         3.1040   -0.8650    3.6090 C.3   110  ARG110      0.0489
     58  CD         3.6040   -0.2740    2.3140 C.3   110  ARG110      0.2205
     59  NE         2.6700    0.7710    1.8120 N.pl3 110  ARG110     -0.0865
     60  CZ         2.9760    1.7110    0.9170 C.cat 110  ARG110      0.5346
     61  NH1        4.1890    1.7960    0.3990 N.pl3 110  ARG110      0.1354
     62  NH2        2.0580    2.6100    0.5530 N.pl3 110  ARG110      0.1354
     63  N          9.5310   -0.5530    4.3610 N.3   112  GLN112     -0.1231
     64  CA         9.7760    0.1470    3.1350 C.3   112  GLN112      0.1698
     65  C          9.4370    1.6410    3.3100 C.2   112  GLN112      0.2592
     66  O         10.1830    2.5250    2.8670 O.2   112  GLN112     -0.2718
     67  CB         8.9950   -0.4880    1.9940 C.3   112  GLN112      0.0381
     68  CG         8.9590    0.2610    0.6180 C.3   112  GLN112      0.0905
     69  CD         7.7570    1.2080    0.5240 C.2   112  GLN112      0.2608
     70  OE1        6.6700    0.8560    0.9710 O.2   112  GLN112     -0.2717
     71  NE2        7.9740    2.4190    0.0080 N.am  112  GLN112     -0.0878
     72  N          8.2970    1.8920    3.9440 N.am  113  LEU113     -0.1980
     73  CA         7.8450    3.2750    4.1930 C.3   113  LEU113      0.1596
     74  C          8.8310    4.0310    5.0650 C.2   113  LEU113      0.2287
     75  O          9.1880    5.1760    4.7930 O.2   113  LEU113     -0.2864
     76  CB         6.4450    3.2700    4.8250 C.3   113  LEU113      0.0297
     77  CG         5.2830    3.0560    3.8200 C.3   113  LEU113      0.0022
     78  CD1        3.9050    2.8420    4.5390 C.3   113  LEU113      0.0001
     79  CD2        5.1460    4.1730    2.7070 C.3   113  LEU113      0.0001
     80  N         11.8040    4.9350    3.0960 N.3   116  LYS116     -0.1231
     81  CA        11.4710    5.9210    2.0760 C.3   116  LYS116      0.1693
     82  C         11.3590    7.3360    2.6440 C.2   116  LYS116      0.2592
     83  O         11.8690    8.2960    2.0490 O.2   116  LYS116     -0.2718
     84  CB        10.1740    5.5680    1.3360 C.3   116  LYS116      0.0285
     85  CG         9.6070    6.7230    0.5030 C.3   116  LYS116      0.0035
     86  CD         8.4390    6.2680   -0.4090 C.3   116  LYS116      0.0206
     87  CE         7.9040    7.4200   -1.2390 C.3   116  LYS116      0.1093
     88  NZ         6.6890    7.0210   -1.9600 N.3   116  LYS116     -0.1314
     89  N         10.7410    7.4530    3.8320 N.am  117  TYR117     -0.1976
     90  CA        10.3890    8.7370    4.4200 C.3   117  TYR117      0.1639
     91  C         11.3640    9.2280    5.4960 C.2   117  TYR117      0.2290
     92  O         11.2690   10.3840    5.9190 O.2   117  TYR117     -0.2864
     93  CB         8.9130    8.7060    4.8740 C.3   117  TYR117      0.0560
     94  CG         7.9370    8.7250    3.7490 C.ar  117  TYR117     -0.0198
     95  CD1        7.5790    9.9410    3.1680 C.ar  117  TYR117     -0.0009
     96  CD2        7.4010    7.5630    3.2290 C.ar  117  TYR117     -0.0009
     97  CE1        6.7060   10.0270    2.1340 C.ar  117  TYR117      0.0417
     98  CE2        6.4860    7.6200    2.1660 C.ar  117  TYR117      0.0417
     99  CZ         6.1560    8.8780    1.6110 C.ar  117  TYR117      0.1957
    100  OH         5.2900    8.9400    0.5540 O.3   117  TYR117     -0.2866
    101  N         14.3860   11.0230    7.0040 N.3   119  PHE119     -0.1241
    102  CA        15.0220   12.2400    6.5570 C.3   119  PHE119      0.1605
    103  C         16.5270   12.0130    6.2050 C.2   119  PHE119      0.2264
    104  O         17.0140   12.5620    5.2200 O.2   119  PHE119     -0.2867
    105  CB        14.9490   13.3790    7.5820 C.3   119  PHE119      0.0534
    106  CG        13.5750   13.7030    8.0790 C.ar  119  PHE119     -0.0203
    107  CD1       12.4480   13.4900    7.3210 C.ar  119  PHE119     -0.0042
    108  CD2       13.4280   14.2060    9.3510 C.ar  119  PHE119     -0.0042
    109  CE1       11.1730   13.7820    7.8290 C.ar  119  PHE119     -0.0003
    110  CE2       12.1830   14.5230    9.8520 C.ar  119  PHE119     -0.0003
    111  CZ        11.0550   14.3140    9.0980 C.ar  119  PHE119     -0.0000
@<TRIPOS>BOND
     1    88    87    1
     2    87    86    1
     3    86    85    1
     4    71    69   am
     5    61    60    1
     6    85    84    1
     7    69    68    1
     8    69    70    2
     9    62    60    1
    10   100    99    1
    11    68    67    1
    12    60    59    2
    13    84    81    1
    14    99    97   ar
    15    99    98   ar
    16    59    58    1
    17    67    64    1
    18    83    82    2
    19    81    82    1
    20    81    80    1
    21    97    95   ar
    22    98    96   ar
    23    58    57    1
    24    82    89   am
    25    79    77    1
    26    66    65    2
    27    64    65    1
    28    64    63    1
    29    95    94   ar
    30    96    94   ar
    31    65    72   am
    32    57    56    1
    33    94    93    1
    34    77    78    1
    35    77    76    1
    36    89    90    1
    37    72    73    1
    38    53    56    1
    39    53    52    1
    40    53    54    1
    41    73    76    1
    42    73    74    1
    43    90    93    1
    44    90    91    1
    45    55    54    2
    46    75    74    2
    47   104   103    2
    48    91    92    2
    49   103   102    1
    50   102   101    1
    51   102   105    1
    52    40    38   ar
    53    40    39   ar
    54    38    36   ar
    55   107   109   ar
    56   107   106   ar
    57    39    37   ar
    58   105   106    1
    59    36    35   ar
    60   109   111   ar
    61    50    49    1
    62   106   108   ar
    63    37    35   ar
    64    35    34    1
    65    20    18    1
    66    49    51    1
    67    49    48    2
    68   111   110   ar
    69   108   110   ar
    70    34    31    1
    71    18    19    1
    72    18    15    1
    73    47    48    1
    74    47    46    1
    75     6     5    1
    76    31    30    1
    77    31    32    1
    78    45    46    1
    79    45    42    1
    80    17    16    2
    81    15    16    1
    82    15    14    1
    83     5     2    1
    84    33    32    2
    85    44    43    2
    86     4     3    2
    87    30    23   am
    88     3     2    1
    89    26    25    1
    90    26    27    1
    91    43    42    1
    92    42    41    1
    93     2     1    1
    94    25    22    1
    95    14     9   am
    96    29    27   ar
    97    23    24    2
    98    23    22    1
    99    27    28   ar
   100    22    21    1
   101     9    10    2
   102     9     8    1
   103    12    11    1
   104     7     8    1
   105     8    11    1
   106    11    13    1
