@<TRIPOS>MOLECULE
tmp/2ongB02.pdb
 101 99 0 0 0
SMALL
GASTEIGER

@<TRIPOS>ATOM
      1  N        -48.3330   67.0080  -52.9420 N.3   145  TYR145     -0.1241
      2  CA       -47.9650   66.3360  -54.1670 C.3   145  TYR145      0.1605
      3  C        -46.5260   65.9140  -53.9120 C.2   145  TYR145      0.2264
      4  O        -46.1720   64.7450  -54.0370 O.2   145  TYR145     -0.2867
      5  CB       -48.0160   67.3410  -55.3190 C.3   145  TYR145      0.0534
      6  CG       -47.0080   67.0550  -56.3940 C.ar  145  TYR145     -0.0201
      7  CD1      -47.3390   66.1200  -57.3450 C.ar  145  TYR145     -0.0009
      8  CD2      -45.8020   67.7350  -56.3900 C.ar  145  TYR145     -0.0009
      9  CE1      -46.4180   65.8570  -58.3340 C.ar  145  TYR145      0.0417
     10  CE2      -44.8750   67.4770  -57.3760 C.ar  145  TYR145      0.0417
     11  CZ       -45.2080   66.5400  -58.3270 C.ar  145  TYR145      0.1957
     12  OH       -44.3510   66.2720  -59.2690 O.3   145  TYR145     -0.2866
     13  N        -43.8570   61.5800  -52.8260 N.3   149  PHE149     -0.1241
     14  CA       -42.7410   60.9250  -53.4530 C.3   149  PHE149      0.1605
     15  C        -41.8990   60.3360  -52.3320 C.2   149  PHE149      0.2264
     16  O        -40.7640   59.9020  -52.5730 O.2   149  PHE149     -0.2867
     17  CB       -41.8860   61.9000  -54.2750 C.3   149  PHE149      0.0534
     18  CG       -42.6550   62.2190  -55.5330 C.ar  149  PHE149     -0.0203
     19  CD1      -42.7100   61.2820  -56.5390 C.ar  149  PHE149     -0.0042
     20  CD2      -43.3390   63.4090  -55.6370 C.ar  149  PHE149     -0.0042
     21  CE1      -43.4650   61.5280  -57.6570 C.ar  149  PHE149     -0.0003
     22  CE2      -44.0960   63.6520  -56.7680 C.ar  149  PHE149     -0.0003
     23  CZ       -44.1570   62.7060  -57.7750 C.ar  149  PHE149     -0.0000
     24  N        -50.6830   61.6720  -54.3670 N.3   162  ARG162     -0.1231
     25  CA       -49.8560   62.0880  -55.4950 C.3   162  ARG162      0.1694
     26  C        -50.8920   62.5040  -56.5340 C.2   162  ARG162      0.2591
     27  O        -50.7630   63.5560  -57.1590 O.2   162  ARG162     -0.2718
     28  CB       -49.0150   60.9260  -56.0340 C.3   162  ARG162      0.0321
     29  CG       -47.7550   61.3500  -56.7700 C.3   162  ARG162      0.0489
     30  CD       -47.4810   60.4710  -57.9950 C.3   162  ARG162      0.2205
     31  NE       -46.8080   59.1920  -57.7200 N.pl3 162  ARG162     -0.0865
     32  CZ       -46.0710   58.9030  -56.6420 C.cat 162  ARG162      0.5346
     33  NH1      -45.8810   59.7980  -55.6780 N.pl3 162  ARG162      0.1354
     34  NH2      -45.4920   57.7070  -56.5380 N.pl3 162  ARG162      0.1354
     35  N        -51.9280   61.6830  -56.6990 N.am  163  GLU163     -0.1979
     36  CA       -52.9380   62.0340  -57.6800 C.3   163  GLU163      0.1602
     37  C        -53.6150   63.3760  -57.4010 C.2   163  GLU163      0.2287
     38  O        -53.4970   64.3090  -58.2070 O.2   163  GLU163     -0.2864
     39  CB       -54.0110   60.9400  -57.7910 C.3   163  GLU163      0.0415
     40  CG       -53.7070   59.6520  -57.0230 C.3   163  GLU163      0.1163
     41  CD       -54.9330   58.7550  -56.6630 C.2   163  GLU163      0.3649
     42  OE1      -55.1630   57.7280  -57.3480 O.co2 163  GLU163     -0.2457
     43  OE2      -55.6490   59.0910  -55.6900 O.co2 163  GLU163     -0.2457
     44  N        -51.7070   66.3480  -58.0950 N.3   166  THR166     -0.1218
     45  CA       -51.3040   66.5500  -59.4960 C.3   166  THR166      0.1862
     46  C        -52.4560   67.1320  -60.3220 C.2   166  THR166      0.2287
     47  O        -52.2780   68.1140  -61.0450 O.2   166  THR166     -0.2866
     48  CB       -50.8550   65.2270  -60.1540 C.3   166  THR166      0.1770
     49  OG1      -49.5110   64.9960  -59.8670 O.3   166  THR166     -0.2211
     50  CG2      -51.0080   65.2790  -61.6520 C.3   166  THR166      0.0375
     51  N        -36.8550   63.9880  -56.3500 N.3   196  TRP196     -0.1241
     52  CA       -35.9220   63.3770  -57.3070 C.3   196  TRP196      0.1605
     53  C        -35.1820   64.4690  -58.0920 C.2   196  TRP196      0.2264
     54  O        -35.0560   64.3810  -59.3010 O.2   196  TRP196     -0.2867
     55  CB       -36.6600   62.4580  -58.2820 C.3   196  TRP196      0.0550
     56  CG       -37.6790   61.4670  -57.7590 C.ar  196  TRP196      0.0003
     57  CD1      -37.7770   61.0100  -56.4830 C.ar  196  TRP196      0.0946
     58  CD2      -38.6370   60.9280  -58.5300 C.ar  196  TRP196      0.0152
     59  NE1      -38.8550   60.1490  -56.4610 N.ar  196  TRP196     -0.2442
     60  CE2      -39.3480   60.1180  -57.6910 C.ar  196  TRP196      0.0810
     61  CE3      -38.9540   61.0430  -59.8420 C.ar  196  TRP196      0.0012
     62  CZ2      -40.4030   59.3990  -58.1470 C.ar  196  TRP196      0.0191
     63  CZ3      -40.0190   60.3200  -60.3150 C.ar  196  TRP196      0.0001
     64  CH2      -40.7390   59.5010  -59.4760 C.ar  196  TRP196      0.0015
     65  N        -43.8970   54.4840  -70.9420 N.3   474  LYS474     -0.1245
     66  CA       -44.6620   54.6350  -69.7460 C.3   474  LYS474      0.1561
     67  C        -44.2120   53.5500  -68.7810 C.2   474  LYS474      0.2260
     68  O        -43.8040   53.8350  -67.6600 O.2   474  LYS474     -0.2867
     69  CB       -46.1510   54.4820  -70.0310 C.3   474  LYS474      0.0271
     70  CG       -47.0080   54.2950  -68.7860 C.3   474  LYS474      0.0035
     71  CD       -48.5070   54.3210  -69.1150 C.3   474  LYS474      0.0206
     72  CE       -48.9730   53.0640  -69.8860 C.3   474  LYS474      0.1093
     73  NZ       -47.8980   52.2940  -70.6240 N.3   474  LYS474     -0.1314
     74  N        -41.1280   54.5010  -67.2670 N.3   477  LYS477     -0.1231
     75  CA       -41.2530   55.5400  -66.2980 C.3   477  LYS477      0.1693
     76  C        -41.8790   54.9430  -65.0410 C.2   477  LYS477      0.2592
     77  O        -41.4800   55.2590  -63.9220 O.2   477  LYS477     -0.2718
     78  CB       -42.1500   56.6270  -66.8670 C.3   477  LYS477      0.0285
     79  CG       -41.4040   57.7550  -67.5390 C.3   477  LYS477      0.0035
     80  CD       -42.1060   58.2070  -68.8090 C.3   477  LYS477      0.0206
     81  CE       -42.6550   59.6330  -68.6820 C.3   477  LYS477      0.1093
     82  NZ       -43.3560   60.0950  -69.9370 N.3   477  LYS477     -0.1314
     83  N        -42.8660   54.0770  -65.2320 N.am  478  TRP478     -0.1976
     84  CA       -43.4810   53.4890  -64.0570 C.3   478  TRP478      0.1640
     85  C        -42.5070   52.6140  -63.3240 C.2   478  TRP478      0.2290
     86  O        -42.6210   52.4380  -62.1520 O.2   478  TRP478     -0.2864
     87  CB       -44.6680   52.6170  -64.4220 C.3   478  TRP478      0.0576
     88  CG       -45.0040   51.5190  -63.3750 C.ar  478  TRP478      0.0006
     89  CD1      -45.8760   51.8530  -62.3860 C.ar  478  TRP478      0.0946
     90  CD2      -44.6640   50.1690  -63.3160 C.ar  478  TRP478      0.0152
     91  NE1      -46.1160   50.7030  -61.6850 N.ar  478  TRP478     -0.2442
     92  CE2      -45.4080   49.7190  -62.2340 C.ar  478  TRP478      0.0810
     93  CE3      -43.8880   49.2160  -63.9830 C.ar  478  TRP478      0.0012
     94  CZ2      -45.4260   48.4130  -61.7950 C.ar  478  TRP478      0.0191
     95  CZ3      -43.8910   47.8810  -63.5540 C.ar  478  TRP478      0.0001
     96  CH2      -44.6650   47.4930  -62.4630 C.ar  478  TRP478      0.0015
     97  N        -40.4420   54.6100  -61.1530 N.3   481  ALA481     -0.1245
     98  CA       -41.3470   54.9130  -60.0670 C.3   481  ALA481      0.1562
     99  C        -41.1280   53.9890  -58.8850 C.2   481  ALA481      0.2260
    100  O        -40.8600   54.4300  -57.7650 O.2   481  ALA481     -0.2867
    101  CB       -42.7700   54.7920  -60.5480 C.3   481  ALA481      0.0290
@<TRIPOS>BOND
     1    65    66    1
     2    73    72    1
     3    69    66    1
     4    69    70    1
     5    82    81    1
     6    72    71    1
     7    66    67    1
     8    71    70    1
     9    80    81    1
    10    80    79    1
    11    67    68    2
    12    79    78    1
    13    74    75    1
    14    78    75    1
    15    75    76    1
    16    83    76   am
    17    83    84    1
    18    76    77    2
    19    87    84    1
    20    87    88    1
    21    84    85    1
    22    93    95   ar
    23    93    90   ar
    24    95    96   ar
    25    88    90   ar
    26    88    89   ar
    27    85    86    2
    28    90    92   ar
    29    96    94   ar
    30    89    91   ar
    31    92    94   ar
    32    92    91   ar
    33    50    48    1
    34    97    98    1
    35    47    46    2
    36   101    98    1
    37    46    45    1
    38    63    61   ar
    39    63    64   ar
    40    48    49    1
    41    48    45    1
    42    98    99    1
    43    61    58   ar
    44    45    44    1
    45    64    62   ar
    46    54    53    2
    47    12    11    1
    48    99   100    2
    49    58    56   ar
    50    58    60   ar
    51     9    11   ar
    52     9     7   ar
    53    11    10   ar
    54    55    56    1
    55    55    52    1
    56    38    37    2
    57    62    60   ar
    58    53    52    1
    59    30    31    1
    60    30    29    1
    61    39    36    1
    62    39    40    1
    63    23    21   ar
    64    23    22   ar
    65    56    57   ar
    66    31    32    2
    67    60    59   ar
    68    36    37    1
    69    36    35    1
    70    21    19   ar
    71    10     8   ar
    72    42    41   ar
    73     7     6   ar
    74    52    51    1
    75    27    26    2
    76    40    41    1
    77    29    28    1
    78    22    20   ar
    79    35    26   am
    80    41    43   ar
    81    32    34    1
    82    32    33    1
    83    19    18   ar
    84    26    25    1
    85    57    59   ar
    86     6     8   ar
    87     6     5    1
    88    28    25    1
    89    20    18   ar
    90    18    17    1
    91    25    24    1
    92     5     2    1
    93    17    14    1
    94     2     3    1
    95     2     1    1
    96     4     3    2
    97    14    13    1
    98    14    15    1
    99    16    15    2
