@<TRIPOS>MOLECULE
tmp/2onhB00.pdb
 203 189 0 0 0
SMALL
GASTEIGER

@<TRIPOS>ATOM
      1  N        -15.7190   57.8270  -76.8780 N.3   259  ARG259     -0.1245
      2  CA       -16.2840   59.1050  -76.5760 C.3   259  ARG259      0.1563
      3  C        -15.3570   60.0200  -75.7900 C.2   259  ARG259      0.2260
      4  O        -14.7180   59.6110  -74.8200 O.2   259  ARG259     -0.2867
      5  CB       -17.5660   58.9150  -75.7770 C.3   259  ARG259      0.0307
      6  CG       -18.7330   58.9310  -76.7180 C.3   259  ARG259      0.0489
      7  CD       -19.8680   58.4670  -75.8360 C.3   259  ARG259      0.2205
      8  NE       -19.6190   57.1400  -75.2780 N.pl3 259  ARG259     -0.0865
      9  CZ       -20.4140   56.5420  -74.3820 C.cat 259  ARG259      0.5346
     10  NH1      -21.5110   57.1550  -73.9410 N.pl3 259  ARG259      0.1354
     11  NH2      -20.1110   55.3320  -73.9360 N.pl3 259  ARG259      0.1354
     12  N        -20.9160   64.7030  -63.7840 N.3   268  TRP268     -0.1241
     13  CA       -21.8420   63.7290  -63.1780 C.3   268  TRP268      0.1605
     14  C        -21.6640   63.7350  -61.6730 C.2   268  TRP268      0.2264
     15  O        -22.6120   63.7940  -60.9190 O.2   268  TRP268     -0.2867
     16  CB       -21.5210   62.3040  -63.6530 C.3   268  TRP268      0.0550
     17  CG       -22.3680   61.8570  -64.8120 C.ar  268  TRP268      0.0003
     18  CD1      -21.9120   62.0940  -66.0770 C.ar  268  TRP268      0.0946
     19  CD2      -23.5690   61.2070  -64.8020 C.ar  268  TRP268      0.0152
     20  NE1      -22.8550   61.5770  -66.9370 N.ar  268  TRP268     -0.2442
     21  CE2      -23.8340   61.0570  -66.1790 C.ar  268  TRP268      0.0810
     22  CE3      -24.4720   60.7210  -63.8760 C.ar  268  TRP268      0.0012
     23  CZ2      -24.9730   60.4380  -66.6780 C.ar  268  TRP268      0.0191
     24  CZ3      -25.6270   60.0920  -64.3700 C.ar  268  TRP268      0.0001
     25  CH2      -25.8750   59.9520  -65.7370 C.ar  268  TRP268      0.0015
     26  N        -15.6000   57.1150  -64.3570 N.3   289  ASN289     -0.1240
     27  CA       -16.6040   57.3330  -65.3700 C.3   289  ASN289      0.1653
     28  C        -15.9780   57.4650  -66.7510 C.2   289  ASN289      0.2266
     29  O        -16.6340   57.1860  -67.7560 O.2   289  ASN289     -0.2867
     30  CB       -17.4410   58.5590  -65.0280 C.3   289  ASN289      0.1155
     31  CG       -18.2030   58.3840  -63.7370 C.2   289  ASN289      0.2627
     32  OD1      -18.1960   59.2170  -62.8120 O.2   289  ASN289     -0.2716
     33  ND2      -18.8820   57.2410  -63.6740 N.am  289  ASN289     -0.0877
     34  N        -14.8400   53.8170  -68.0050 N.3   292  ILE292     -0.1231
     35  CA       -16.0050   53.1260  -68.4270 C.3   292  ILE292      0.1692
     36  C        -16.4210   53.5460  -69.8180 C.2   292  ILE292      0.2592
     37  O        -16.5620   52.7200  -70.6870 O.2   292  ILE292     -0.2718
     38  CB       -17.1530   53.3640  -67.4860 C.3   292  ILE292      0.0266
     39  CG1      -16.8450   52.7390  -66.1200 C.3   292  ILE292      0.0019
     40  CG2      -18.4200   52.7500  -68.0840 C.3   292  ILE292      0.0020
     41  CD1      -17.8170   53.0860  -64.9940 C.3   292  ILE292      0.0001
     42  N        -16.6150   54.8040  -70.0210 N.am  293  THR293     -0.1953
     43  CA       -17.0070   55.2500  -71.3010 C.3   293  THR293      0.1897
     44  C        -16.1540   54.5790  -72.3430 C.2   293  THR293      0.2313
     45  O        -16.6440   53.9180  -73.2370 O.2   293  THR293     -0.2863
     46  CB       -16.8420   56.7030  -71.4410 C.3   293  THR293      0.1794
     47  OG1      -17.7570   57.3600  -70.5590 O.3   293  THR293     -0.2208
     48  CG2      -17.1360   57.1320  -72.8720 C.3   293  THR293      0.0378
     49  N        -16.5200   51.0090  -72.4500 N.3   296  ASP296     -0.1239
     50  CA       -17.8620   50.6850  -72.8990 C.3   296  ASP296      0.1674
     51  C        -17.9200   50.7660  -74.4230 C.2   296  ASP296      0.2266
     52  O        -18.3650   49.8320  -75.0600 O.2   296  ASP296     -0.2867
     53  CB       -18.8890   51.6340  -72.2780 C.3   296  ASP296      0.1410
     54  CG       -20.2530   51.5190  -72.9320 C.2   296  ASP296      0.3668
     55  OD1      -20.7660   52.5400  -73.3840 O.co2 296  ASP296     -0.2456
     56  OD2      -20.8040   50.4080  -72.9920 O.co2 296  ASP296     -0.2456
     57  N        -19.6790   48.1610  -77.2180 N.3   300  ASP300     -0.1239
     58  CA       -20.8340   48.3240  -78.1270 C.3   300  ASP300      0.1674
     59  C        -20.5720   49.0900  -79.4080 C.2   300  ASP300      0.2266
     60  O        -21.5140   49.3130  -80.1790 O.2   300  ASP300     -0.2867
     61  CB       -22.0420   48.9540  -77.4060 C.3   300  ASP300      0.1410
     62  CG       -21.7210   50.2770  -76.7380 C.2   300  ASP300      0.3668
     63  OD1      -22.3120   50.5370  -75.6570 O.co2 300  ASP300     -0.2456
     64  OD2      -20.9010   51.0370  -77.2840 O.co2 300  ASP300     -0.2456
     65  N        -20.7920   43.5750  -69.6450 N.3   371  TYR371     -0.1241
     66  CA       -20.7010   44.2150  -70.9380 C.3   371  TYR371      0.1605
     67  C        -20.6140   43.1300  -72.0220 C.2   371  TYR371      0.2264
     68  O        -21.1310   43.2820  -73.1380 O.2   371  TYR371     -0.2867
     69  CB       -19.4440   45.0960  -71.0140 C.3   371  TYR371      0.0534
     70  CG       -19.6880   46.5500  -70.5780 C.ar  371  TYR371     -0.0201
     71  CD1      -20.8660   47.2470  -70.7590 C.ar  371  TYR371     -0.0009
     72  CD2      -18.6180   47.2130  -69.9720 C.ar  371  TYR371     -0.0009
     73  CE1      -20.9580   48.5890  -70.3380 C.ar  371  TYR371      0.0417
     74  CE2      -18.6900   48.5490  -69.5450 C.ar  371  TYR371      0.0417
     75  CZ       -19.8730   49.2410  -69.7310 C.ar  371  TYR371      0.1957
     76  OH       -20.0070   50.4870  -69.3510 O.3   371  TYR371     -0.2866
     77  N        -23.8160   41.3110  -73.2470 N.3   374  GLU374     -0.1245
     78  CA       -24.5700   42.2070  -74.0800 C.3   374  GLU374      0.1567
     79  C        -23.9840   42.0930  -75.4690 C.2   374  GLU374      0.2260
     80  O        -24.7220   42.0130  -76.4430 O.2   374  GLU374     -0.2867
     81  CB       -24.4660   43.6530  -73.5690 C.3   374  GLU374      0.0388
     82  CG       -25.6680   44.0420  -72.6940 C.3   374  GLU374      0.1160
     83  CD       -25.7890   45.4120  -71.9840 C.2   374  GLU374      0.3649
     84  OE1      -26.4230   45.4740  -70.9210 O.co2 374  GLU374     -0.2457
     85  OE2      -25.2580   46.4000  -72.4970 O.co2 374  GLU374     -0.2457
     86  N        -24.5850   46.0940  -66.2250 N.3   396  SER396     -0.1202
     87  CA       -23.8950   46.4860  -67.3880 C.3   396  SER396      0.2020
     88  C        -23.9230   47.9840  -67.6270 C.2   396  SER396      0.2619
     89  O        -23.3950   48.4380  -68.6150 O.2   396  SER396     -0.2717
     90  CB       -24.4790   45.7760  -68.5890 C.3   396  SER396      0.2103
     91  OG       -25.3590   46.7410  -69.0390 O.3   396  SER396     -0.2182
     92  N        -24.5440   48.7400  -66.7500 N.am  397  ILE397     -0.1965
     93  CA       -24.5910   50.2060  -66.9200 C.3   397  ILE397      0.1727
     94  C        -23.4470   50.8120  -66.1140 C.2   397  ILE397      0.2616
     95  O        -23.0810   51.9730  -66.3190 O.2   397  ILE397     -0.2715
     96  CB       -26.0040   50.8540  -66.4570 C.3   397  ILE397      0.0290
     97  CG1      -26.0760   52.3140  -66.9020 C.3   397  ILE397      0.0022
     98  CG2      -26.1710   50.8040  -64.9560 C.3   397  ILE397      0.0023
     99  CD1      -27.3050   52.7830  -67.6180 C.3   397  ILE397      0.0001
    100  N        -22.8840   49.9890  -65.1770 N.am  398  SER398     -0.1950
    101  CA       -21.7330   50.3690  -64.3430 C.3   398  SER398      0.1924
    102  C        -22.0750   50.9280  -62.9860 C.2   398  SER398      0.2314
    103  O        -21.1770   51.2340  -62.1850 O.2   398  SER398     -0.2863
    104  CB       -20.8510   51.3800  -65.0780 C.3   398  SER398      0.2116
    105  OG       -21.2080   52.7230  -64.7350 O.3   398  SER398     -0.2180
    106  N        -19.3660   52.1700  -60.4080 N.3   402  MET402     -0.1245
    107  CA       -19.3090   53.4960  -59.9470 C.3   402  MET402      0.1570
    108  C        -19.3280   53.5100  -58.4350 C.2   402  MET402      0.2261
    109  O        -18.4510   54.0310  -57.7750 O.2   402  MET402     -0.2867
    110  CB       -20.5050   54.2720  -60.4630 C.3   402  MET402      0.0387
    111  CG       -20.2780   54.3370  -61.9460 C.3   402  MET402      0.0595
    112  SD       -21.6260   55.3480  -62.5860 S.3   402  MET402     -0.1393
    113  CE       -21.3850   56.8950  -61.8000 C.3   402  MET402      0.0692
    114  N        -30.4820   54.6750  -62.6170 N.3   436  LEU436     -0.1231
    115  CA       -29.5240   55.1330  -63.5470 C.3   436  LEU436      0.1693
    116  C        -29.8130   54.5070  -64.8990 C.2   436  LEU436      0.2591
    117  O        -29.9880   55.1920  -65.9040 O.2   436  LEU436     -0.2718
    118  CB       -28.1420   54.7130  -63.0970 C.3   436  LEU436      0.0284
    119  CG       -26.9390   54.9780  -63.9950 C.3   436  LEU436      0.0019
    120  CD1      -27.0190   56.3460  -64.6590 C.3   436  LEU436      0.0001
    121  CD2      -25.7030   54.9610  -63.0960 C.3   436  LEU436      0.0001
    122  N        -29.8780   53.1870  -64.9050 N.am  437  ARG437     -0.1980
    123  CA       -30.1290   52.4390  -66.1080 C.3   437  ARG437      0.1597
    124  C        -31.3660   52.8430  -66.8780 C.2   437  ARG437      0.2287
    125  O        -31.2510   53.2800  -67.9810 O.2   437  ARG437     -0.2864
    126  CB       -30.2450   50.9610  -65.7960 C.3   437  ARG437      0.0334
    127  CG       -30.9270   50.4790  -67.0680 C.3   437  ARG437      0.0492
    128  CD       -29.9670   49.5740  -67.7580 C.3   437  ARG437      0.2205
    129  NE       -29.3820   50.1970  -68.9380 N.pl3 437  ARG437     -0.0865
    130  CZ       -28.1270   49.9470  -69.3920 C.cat 437  ARG437      0.5346
    131  NH1      -27.3270   49.0900  -68.7640 N.pl3 437  ARG437      0.1354
    132  NH2      -27.6980   50.5510  -70.4870 N.pl3 437  ARG437      0.1354
    133  N        -31.3310   56.1690  -68.2630 N.3   440  ASP440     -0.1239
    134  CA       -30.4520   56.2610  -69.4130 C.3   440  ASP440      0.1674
    135  C        -31.1640   55.6740  -70.6410 C.2   440  ASP440      0.2266
    136  O        -31.2110   56.2900  -71.6970 O.2   440  ASP440     -0.2867
    137  CB       -29.1450   55.5020  -69.1220 C.3   440  ASP440      0.1410
    138  CG       -28.4340   54.9640  -70.4060 C.2   440  ASP440      0.3668
    139  OD1      -27.6670   54.0350  -70.2730 O.co2 440  ASP440     -0.2456
    140  OD2      -28.6410   55.4730  -71.5050 O.co2 440  ASP440     -0.2456
    141  N        -31.7330   57.3150  -74.4340 N.3   444  THR444     -0.1218
    142  CA       -30.6250   56.6380  -75.1810 C.3   444  THR444      0.1862
    143  C        -31.1140   55.2830  -75.7120 C.2   444  THR444      0.2287
    144  O        -30.3670   54.3030  -75.8390 O.2   444  THR444     -0.2866
    145  CB       -29.3030   56.3860  -74.2390 C.3   444  THR444      0.1770
    146  OG1      -28.8520   57.6260  -73.6790 O.3   444  THR444     -0.2211
    147  CG2      -28.1490   55.7620  -75.0250 C.3   444  THR444      0.0375
    148  N        -29.3400   54.6810  -79.9130 N.3   448  GLU448     -0.1245
    149  CA       -28.1260   53.8830  -79.7460 C.3   448  GLU448      0.1567
    150  C        -28.3040   52.5460  -80.4460 C.2   448  GLU448      0.2260
    151  O        -27.4200   52.0620  -81.1300 O.2   448  GLU448     -0.2867
    152  CB       -27.7820   53.6520  -78.2460 C.3   448  GLU448      0.0388
    153  CG       -26.2610   53.7580  -77.9470 C.3   448  GLU448      0.1160
    154  CD       -25.9140   55.1710  -77.6530 C.2   448  GLU448      0.3649
    155  OE1      -26.7820   55.9930  -77.4880 O.co2 448  GLU448     -0.2457
    156  OE2      -24.6110   55.4350  -77.6380 O.co2 448  GLU448     -0.2457
    157  N        -26.4660   48.1720  -81.2090 N.3   453  ASP453     -0.1239
    158  CA       -26.4960   47.9740  -79.7660 C.3   453  ASP453      0.1674
    159  C        -27.6540   47.0290  -79.4310 C.2   453  ASP453      0.2266
    160  O        -28.6160   46.9010  -80.2050 O.2   453  ASP453     -0.2867
    161  CB       -26.6690   49.3170  -79.0380 C.3   453  ASP453      0.1410
    162  CG       -25.8490   49.4000  -77.7310 C.2   453  ASP453      0.3668
    163  OD1      -25.4460   48.3510  -77.2170 O.co2 453  ASP453     -0.2456
    164  OD2      -25.6260   50.5150  -77.2380 O.co2 453  ASP453     -0.2456
    165  N        -32.6640   47.8830  -75.8010 N.3   456  LYS456     -0.1245
    166  CA       -32.7140   48.4070  -74.4400 C.3   456  LYS456      0.1561
    167  C        -34.1020   48.2540  -73.8320 C.2   456  LYS456      0.2260
    168  O        -35.0180   47.8020  -74.5070 O.2   456  LYS456     -0.2867
    169  CB       -32.2960   49.8730  -74.4290 C.3   456  LYS456      0.0271
    170  CG       -31.1540   50.0350  -75.4210 C.3   456  LYS456      0.0035
    171  CD       -30.2490   51.2090  -75.0970 C.3   456  LYS456      0.0206
    172  CE       -28.8290   50.6840  -75.2980 C.3   456  LYS456      0.1093
    173  NZ       -28.5330   49.5310  -74.3960 N.3   456  LYS456     -0.1314
    174  N        -30.2230   62.5050  -68.2580 N.3   517  TYR517     -0.1241
    175  CA       -31.0960   61.7850  -69.2080 C.3   517  TYR517      0.1605
    176  C        -32.5400   62.2780  -69.2400 C.2   517  TYR517      0.2264
    177  O        -33.4720   61.5000  -69.4580 O.2   517  TYR517     -0.2867
    178  CB       -31.0910   60.2780  -68.8990 C.3   517  TYR517      0.0534
    179  CG       -29.7320   59.6270  -69.1390 C.ar  517  TYR517     -0.0201
    180  CD1      -29.1940   59.6860  -70.4150 C.ar  517  TYR517     -0.0009
    181  CD2      -29.0490   59.0390  -68.0670 C.ar  517  TYR517     -0.0009
    182  CE1      -27.9420   59.1580  -70.6300 C.ar  517  TYR517      0.0417
    183  CE2      -27.8000   58.5120  -68.2790 C.ar  517  TYR517      0.0417
    184  CZ       -27.2840   58.5920  -69.5550 C.ar  517  TYR517      0.1957
    185  OH       -26.0940   58.1410  -69.8010 O.3   517  TYR517     -0.2866
    186  N        -29.5260   62.7040  -74.5020 N.3   521  ASP521     -0.1239
    187  CA       -28.3660   62.0780  -73.8430 C.3   521  ASP521      0.1674
    188  C        -27.5420   63.1250  -73.0800 C.2   521  ASP521      0.2266
    189  O        -26.8250   63.9590  -73.6690 O.2   521  ASP521     -0.2867
    190  CB       -27.4650   61.3620  -74.8660 C.3   521  ASP521      0.1410
    191  CG       -26.4430   60.3630  -74.1860 C.2   521  ASP521      0.3668
    192  OD1      -26.2050   60.4690  -72.9600 O.co2 521  ASP521     -0.2456
    193  OD2      -25.9010   59.4910  -74.8930 O.co2 521  ASP521     -0.2456
    194  N        -25.0000   62.8730  -69.9060 N.3   523  HIS523     -0.1241
    195  CA       -23.6570   62.2750  -69.9340 C.3   523  HIS523      0.1621
    196  C        -22.6960   63.0080  -70.8780 C.2   523  HIS523      0.2264
    197  O        -21.9030   63.8370  -70.4400 O.2   523  HIS523     -0.2867
    198  CB       -23.7420   60.8030  -70.3380 C.3   523  HIS523      0.0745
    199  CG       -22.3920   60.2300  -70.6920 C.ar  523  HIS523      0.0817
    200  ND1      -22.2220   59.7600  -71.9240 N.ar  523  HIS523     -0.2268
    201  CD2      -21.2530   60.2080  -69.9210 C.ar  523  HIS523      0.1154
    202  CE1      -20.8890   59.4130  -71.9610 C.ar  523  HIS523      0.1986
    203  NE2      -20.2920   59.6820  -70.7470 N.ar  523  HIS523     -0.2212
@<TRIPOS>BOND
     1   157   158    1
     2   151   150    2
     3   150   149    1
     4   160   159    2
     5    60    59    2
     6   148   149    1
     7   158   159    1
     8   158   161    1
     9   149   152    1
    10    59    58    1
    11   161   162    1
    12   152   153    1
    13    58    61    1
    14    58    57    1
    15   153   154    1
    16   162   164   ar
    17   162   163   ar
    18   154   156   ar
    19   154   155   ar
    20    61    62    1
    21    64    62   ar
    22     1     2    1
    23    62    63   ar
    24     6     7    1
    25     6     5    1
    26     2     3    1
    27     2     5    1
    28    80    79    2
    29   144   143    2
    30     7     8    1
    31   165   166    1
    32     3     4    2
    33   143   142    1
    34    79    78    1
    35   170   171    1
    36   170   169    1
    37   172   171    1
    38   172   173    1
    39     8     9    2
    40   142   141    1
    41   142   145    1
    42    52    51    2
    43   147   145    1
    44   193   191   ar
    45   190   191    1
    46   190   187    1
    47   168   167    2
    48   186   187    1
    49   166   169    1
    50   166   167    1
    51    51    50    1
    52     9    10    1
    53     9    11    1
    54   145   146    1
    55   191   192   ar
    56    78    81    1
    57    78    77    1
    58   187   188    1
    59   189   188    2
    60    81    82    1
    61    55    54   ar
    62    45    44    2
    63    68    67    2
    64    56    54   ar
    65    54    53    1
    66    50    49    1
    67    50    53    1
    68    48    46    1
    69    82    83    1
    70    85    83   ar
    71    44    43    1
    72    67    66    1
    73    83    84   ar
    74   202   200   ar
    75   202   203   ar
    76   200   199   ar
    77   136   135    2
    78   140   138   ar
    79    46    43    1
    80    46    47    1
    81    43    42    1
    82    69    66    1
    83    69    70    1
    84    66    65    1
    85   196   197    2
    86   196   195    1
    87    71    70   ar
    88    71    73   ar
    89   203   201   ar
    90   199   198    1
    91   199   201   ar
    92    37    36    2
    93   135   134    1
    94   182   180   ar
    95   182   184   ar
    96    70    72   ar
    97   132   130    1
    98   180   179   ar
    99   138   139   ar
   100   138   137    1
   101    73    75   ar
   102   198   195    1
   103    42    36   am
   104    72    74   ar
   105   195   194    1
   106    36    35    1
   107   185   184    1
   108    75    74   ar
   109    75    76    1
   110   184   183   ar
   111   177   176    2
   112   134   137    1
   113   134   133    1
   114   130   129    2
   115   130   131    1
   116   176   175    1
   117   175   178    1
   118   175   174    1
   119   179   178    1
   120   179   181   ar
   121    91    90    1
   122   129   128    1
   123    89    88    2
   124    90    87    1
   125    35    34    1
   126    35    38    1
   127   183   181   ar
   128    40    38    1
   129   125   124    2
   130   128   127    1
   131    29    28    2
   132    88    87    1
   133    88    92   am
   134    99    97    1
   135    38    39    1
   136    87    86    1
   137   127   126    1
   138    20    21   ar
   139    20    18   ar
   140    93    92    1
   141    93    96    1
   142    93    94    1
   143    97    96    1
   144   124   123    1
   145    28    27    1
   146    23    21   ar
   147    23    25   ar
   148    96    98    1
   149    95    94    2
   150    21    19   ar
   151    39    41    1
   152    94   100   am
   153   123   126    1
   154   123   122    1
   155    18    17   ar
   156   117   116    2
   157    25    24   ar
   158    27    30    1
   159    27    26    1
   160   100   101    1
   161   104   105    1
   162   104   101    1
   163    30    31    1
   164   122   116   am
   165   116   115    1
   166    17    19   ar
   167    17    16    1
   168    19    22   ar
   169   120   119    1
   170    24    22   ar
   171   101   102    1
   172   119   118    1
   173   119   121    1
   174    12    13    1
   175    31    33   am
   176    31    32    2
   177    16    13    1
   178   115   118    1
   179   115   114    1
   180    13    14    1
   181   102   103    2
   182   112   111    1
   183   112   113    1
   184   111   110    1
   185    14    15    2
   186   110   107    1
   187   106   107    1
   188   107   108    1
   189   108   109    2
