@<TRIPOS>MOLECULE
tmp/2onhA01.pdb
 127 124 0 0 0
SMALL
GASTEIGER

@<TRIPOS>ATOM
      1  N         37.3120   41.2380  -53.8130 N.3   387  GLU387     -0.1245
      2  CA        36.6880   40.7310  -55.0260 C.3   387  GLU387      0.1567
      3  C         35.2590   40.2610  -54.8190 C.2   387  GLU387      0.2260
      4  O         34.3900   40.6460  -55.5850 O.2   387  GLU387     -0.2867
      5  CB        37.5120   39.6040  -55.6470 C.3   387  GLU387      0.0388
      6  CG        37.1290   39.6310  -57.1380 C.3   387  GLU387      0.1160
      7  CD        36.7670   40.9840  -57.8490 C.2   387  GLU387      0.3649
      8  OE1       35.6490   41.1020  -58.3880 O.co2 387  GLU387     -0.2457
      9  OE2       37.6070   41.8950  -57.8540 O.co2 387  GLU387     -0.2457
     10  N         33.0920   43.3460  -54.2990 N.3   390  LEU390     -0.1231
     11  CA        33.0840   44.0880  -55.5480 C.3   390  LEU390      0.1693
     12  C         32.2070   43.5200  -56.6380 C.2   390  LEU390      0.2591
     13  O         31.6930   44.2670  -57.4450 O.2   390  LEU390     -0.2718
     14  CB        34.5060   44.2240  -56.0880 C.3   390  LEU390      0.0284
     15  CG        35.2580   45.4760  -55.6410 C.3   390  LEU390      0.0019
     16  CD1       36.7020   45.3680  -56.0760 C.3   390  LEU390      0.0001
     17  CD2       34.6210   46.7150  -56.2460 C.3   390  LEU390      0.0001
     18  N         32.0450   42.2450  -56.6760 N.am  391  GLU391     -0.1979
     19  CA        31.2240   41.6690  -57.7210 C.3   391  GLU391      0.1602
     20  C         29.7470   41.8740  -57.4560 C.2   391  GLU391      0.2287
     21  O         28.9230   41.8140  -58.3650 O.2   391  GLU391     -0.2864
     22  CB        31.5100   40.1780  -57.8840 C.3   391  GLU391      0.0415
     23  CG        32.4870   40.0280  -59.0520 C.3   391  GLU391      0.1163
     24  CD        32.0280   40.5030  -60.4460 C.2   391  GLU391      0.3649
     25  OE1       32.8140   41.2230  -61.1200 O.co2 391  GLU391     -0.2457
     26  OE2       30.8940   40.1510  -60.8500 O.co2 391  GLU391     -0.2457
     27  N         28.1900   47.8920  -66.5130 N.3   430  ARG430     -0.1231
     28  CA        29.0990   47.3990  -65.5280 C.3   430  ARG430      0.1694
     29  C         30.1470   48.4250  -65.1110 C.2   430  ARG430      0.2592
     30  O         30.3380   48.6820  -63.9390 O.2   430  ARG430     -0.2718
     31  CB        29.8020   46.1480  -66.0450 C.3   430  ARG430      0.0321
     32  CG        31.0780   45.8620  -65.2690 C.3   430  ARG430      0.0489
     33  CD        31.7080   44.5720  -65.7560 C.3   430  ARG430      0.2205
     34  NE        31.1390   43.4310  -65.0620 N.pl3 430  ARG430     -0.0865
     35  CZ        31.6880   42.8540  -64.0120 C.cat 430  ARG430      0.5346
     36  NH1       32.8350   43.3000  -63.5160 N.pl3 430  ARG430      0.1354
     37  NH2       31.0740   41.8340  -63.4360 N.pl3 430  ARG430      0.1354
     38  N         30.8160   49.0110  -66.0400 N.am  431  TRP431     -0.1976
     39  CA        31.8210   49.9280  -65.6460 C.3   431  TRP431      0.1640
     40  C         31.3060   51.2380  -65.1290 C.2   431  TRP431      0.2290
     41  O         31.9100   51.7400  -64.1980 O.2   431  TRP431     -0.2864
     42  CB        32.8450   50.1110  -66.7560 C.3   431  TRP431      0.0576
     43  CG        33.5880   48.8290  -67.0220 C.ar  431  TRP431      0.0006
     44  CD1       34.1050   47.9710  -66.0430 C.ar  431  TRP431      0.0946
     45  CD2       33.7010   48.2840  -68.1870 C.ar  431  TRP431      0.0152
     46  NE1       34.5530   46.8100  -66.6350 N.ar  431  TRP431     -0.2442
     47  CE2       34.2850   47.0470  -67.9250 C.ar  431  TRP431      0.0810
     48  CE3       33.3240   48.8180  -69.3780 C.ar  431  TRP431      0.0012
     49  CZ2       34.5100   46.2520  -68.9930 C.ar  431  TRP431      0.0191
     50  CZ3       33.5680   47.9920  -70.4570 C.ar  431  TRP431      0.0001
     51  CH2       34.1510   46.7260  -70.2670 C.ar  431  TRP431      0.0015
     52  N         30.3900   50.7580  -61.5690 N.3   434  PHE434     -0.1241
     53  CA        31.5640   50.5210  -60.7850 C.3   434  PHE434      0.1605
     54  C         32.1430   51.8450  -60.3010 C.2   434  PHE434      0.2264
     55  O         32.5850   51.9350  -59.1710 O.2   434  PHE434     -0.2867
     56  CB        32.5910   49.7390  -61.6050 C.3   434  PHE434      0.0534
     57  CG        32.7470   48.2960  -61.1230 C.ar  434  PHE434     -0.0203
     58  CD1       33.1100   48.0400  -59.8080 C.ar  434  PHE434     -0.0042
     59  CD2       32.4960   47.2640  -61.9940 C.ar  434  PHE434     -0.0042
     60  CE1       33.2210   46.7410  -59.3550 C.ar  434  PHE434     -0.0003
     61  CE2       32.6080   45.9620  -61.5350 C.ar  434  PHE434     -0.0003
     62  CZ        32.9690   45.7090  -60.2230 C.ar  434  PHE434     -0.0000
     63  N         32.4130   52.6550  -56.4800 N.3   438  LEU438     -0.1245
     64  CA        33.7120   52.9590  -55.8490 C.3   438  LEU438      0.1561
     65  C         33.7900   54.3610  -55.2760 C.2   438  LEU438      0.2260
     66  O         34.2360   54.5530  -54.1670 O.2   438  LEU438     -0.2867
     67  CB        34.8410   52.7410  -56.8530 C.3   438  LEU438      0.0270
     68  CG        34.9400   51.3070  -57.3700 C.3   438  LEU438      0.0019
     69  CD1       35.5820   51.2850  -58.7370 C.3   438  LEU438      0.0001
     70  CD2       35.7580   50.4870  -56.4120 C.3   438  LEU438      0.0001
     71  N         44.2160   52.3210  -53.4090 N.3   475  HIS475     -0.1241
     72  CA        43.8450   51.2850  -54.2750 C.3   475  HIS475      0.1621
     73  C         42.5320   51.6210  -54.9490 C.2   475  HIS475      0.2264
     74  O         42.4620   51.7690  -56.1570 O.2   475  HIS475     -0.2867
     75  CB        43.7060   49.9790  -53.5130 C.3   475  HIS475      0.0745
     76  CG        43.6000   48.8000  -54.4310 C.ar  475  HIS475      0.0817
     77  ND1       42.5400   48.0380  -54.3290 N.ar  475  HIS475     -0.2268
     78  CD2       44.4100   48.4880  -55.4830 C.ar  475  HIS475      0.1154
     79  CE1       42.6040   47.1460  -55.3670 C.ar  475  HIS475      0.1986
     80  NE2       43.7520   47.4330  -56.0650 N.ar  475  HIS475     -0.2212
     81  N         42.8520   53.8700  -57.5830 N.3   478  TRP478     -0.1227
     82  CA        43.4380   53.2560  -58.7520 C.3   478  TRP478      0.1737
     83  C         42.4070   52.4810  -59.5620 C.2   478  TRP478      0.2595
     84  O         42.3380   52.5990  -60.7720 O.2   478  TRP478     -0.2718
     85  CB        44.5580   52.3170  -58.3370 C.3   478  TRP478      0.0564
     86  CG        44.9670   51.4070  -59.4410 C.ar  478  TRP478      0.0003
     87  CD1       45.6270   51.9120  -60.5020 C.ar  478  TRP478      0.0946
     88  CD2       44.7310   50.0790  -59.5380 C.ar  478  TRP478      0.0152
     89  NE1       45.8230   50.8370  -61.3300 N.ar  478  TRP478     -0.2442
     90  CE2       45.2880   49.7650  -60.7440 C.ar  478  TRP478      0.0810
     91  CE3       44.1350   49.1010  -58.7940 C.ar  478  TRP478      0.0012
     92  CZ2       45.2690   48.4950  -61.2390 C.ar  478  TRP478      0.0191
     93  CZ3       44.1160   47.8210  -59.2870 C.ar  478  TRP478      0.0001
     94  CH2       44.6780   47.5210  -60.5000 C.ar  478  TRP478      0.0015
     95  N         41.6220   51.6800  -58.8780 N.am  479  LEU479     -0.1980
     96  CA        40.5820   50.9020  -59.5100 C.3   479  LEU479      0.1596
     97  C         39.7070   51.7800  -60.3800 C.2   479  LEU479      0.2287
     98  O         39.3640   51.4040  -61.4960 O.2   479  LEU479     -0.2864
     99  CB        39.6980   50.2650  -58.4590 C.3   479  LEU479      0.0297
    100  CG        40.2100   48.9290  -57.9850 C.3   479  LEU479      0.0022
    101  CD1       39.3060   48.4250  -56.8830 C.3   479  LEU479      0.0001
    102  CD2       40.4060   48.0560  -59.2040 C.3   479  LEU479      0.0001
    103  N         41.2510   52.4770  -63.5770 N.3   482  GLU482     -0.1231
    104  CA        41.1810   51.2780  -64.4120 C.3   482  GLU482      0.1699
    105  C         39.8370   51.1390  -65.0960 C.2   482  GLU482      0.2592
    106  O         39.7480   50.9830  -66.3110 O.2   482  GLU482     -0.2718
    107  CB        41.4290   50.0460  -63.5600 C.3   482  GLU482      0.0402
    108  CG        42.6790   50.3610  -62.7490 C.3   482  GLU482      0.1161
    109  CD        43.8890   50.7460  -63.6180 C.2   482  GLU482      0.3649
    110  OE1       44.3330   51.9100  -63.5540 O.co2 482  GLU482     -0.2457
    111  OE2       44.3770   49.8900  -64.3470 O.co2 482  GLU482     -0.2457
    112  N         38.7830   51.1880  -64.3080 N.am  483  VAL483     -0.1980
    113  CA        37.4620   51.0780  -64.8450 C.3   483  VAL483      0.1595
    114  C         37.2070   52.1640  -65.8870 C.2   483  VAL483      0.2287
    115  O         36.6090   51.8640  -66.8960 O.2   483  VAL483     -0.2864
    116  CB        36.4340   51.1650  -63.7580 C.3   483  VAL483      0.0276
    117  CG1       36.8820   50.1770  -62.6930 C.3   483  VAL483      0.0022
    118  CG2       36.4550   52.4670  -62.9950 C.3   483  VAL483      0.0022
    119  N         38.4780   51.1400  -69.2320 N.3   486  LYS486     -0.1245
    120  CA        37.6070   50.1500  -69.8320 C.3   486  LYS486      0.1561
    121  C         36.4000   50.8440  -70.4350 C.2   486  LYS486      0.2260
    122  O         35.8980   50.4830  -71.4870 O.2   486  LYS486     -0.2867
    123  CB        37.1280   49.1630  -68.7830 C.3   486  LYS486      0.0271
    124  CG        38.2440   48.8600  -67.8320 C.3   486  LYS486      0.0035
    125  CD        38.0040   47.3780  -67.6570 C.3   486  LYS486      0.0206
    126  CE        38.9490   46.6940  -66.6810 C.3   486  LYS486      0.1093
    127  NZ        38.2640   46.2700  -65.4200 N.3   486  LYS486     -0.1314
@<TRIPOS>BOND
     1   122   121    2
     2    50    51   ar
     3    50    48   ar
     4   121   120    1
     5    51    49   ar
     6   120   119    1
     7   120   123    1
     8    48    45   ar
     9    49    47   ar
    10   123   124    1
    11    45    47   ar
    12    45    43   ar
    13    47    46   ar
    14   124   125    1
    15   125   126    1
    16    43    42    1
    17    43    44   ar
    18   115   114    2
    19    42    39    1
    20   126   127    1
    21    46    44   ar
    22    27    28    1
    23   106   105    2
    24    31    28    1
    25    31    32    1
    26    38    39    1
    27    38    29   am
    28   114   113    1
    29    33    32    1
    30    33    34    1
    31    39    40    1
    32    28    29    1
    33    40    41    2
    34    29    30    2
    35   105   104    1
    36   105   112   am
    37    34    35    2
    38   113   112    1
    39   113   116    1
    40   104   103    1
    41   104   107    1
    42   111   109   ar
    43    35    36    1
    44    35    37    1
    45   116   118    1
    46   116   117    1
    47   109   110   ar
    48   109   108    1
    49   107   108    1
    50    59    61   ar
    51    59    57   ar
    52    56    57    1
    53    56    53    1
    54    52    53    1
    55    61    62   ar
    56    98    97    2
    57    89    90   ar
    58    89    87   ar
    59    92    90   ar
    60    92    94   ar
    61    57    58   ar
    62    25    24   ar
    63    26    24   ar
    64    53    54    1
    65    84    83    2
    66    90    88   ar
    67    87    86   ar
    68    94    93   ar
    69    24    23    1
    70    97    96    1
    71    54    55    2
    72    62    60   ar
    73    58    60   ar
    74    83    95   am
    75    83    82    1
    76    88    86   ar
    77    88    91   ar
    78    96    95    1
    79    96    99    1
    80    86    85    1
    81    93    91   ar
    82   102   100    1
    83    23    22    1
    84    82    85    1
    85    82    81    1
    86    69    68    1
    87    99   100    1
    88     8     7   ar
    89    21    20    2
    90   100   101    1
    91    22    19    1
    92     9     7   ar
    93     7     6    1
    94    19    20    1
    95    19    18    1
    96    13    12    2
    97    68    67    1
    98    68    70    1
    99     6     5    1
   100    67    64    1
   101    18    12   am
   102    12    11    1
   103    63    64    1
   104    17    15    1
   105    74    73    2
   106    14    15    1
   107    14    11    1
   108    16    15    1
   109    80    78   ar
   110    80    79   ar
   111    64    65    1
   112     5     2    1
   113     4     3    2
   114    11    10    1
   115    78    76   ar
   116    79    77   ar
   117    65    66    2
   118     2     3    1
   119     2     1    1
   120    73    72    1
   121    76    77   ar
   122    76    75    1
   123    72    75    1
   124    72    71    1
