@<TRIPOS>MOLECULE
tmp/2onjA00.pdb
 75 72 0 0 0
SMALL
GASTEIGER

@<TRIPOS>ATOM
      1  N         95.5070   89.3630  165.4720 N.3   463  LEU463     -0.1231
      2  CA        96.7340   89.0010  164.7780 C.3   463  LEU463      0.1678
      3  C         97.1470   90.0350  163.7420 C.2   463  LEU463      0.2434
      4  O         96.3160   90.5430  162.9870 O.2   463  LEU463     -0.2733
      5  CB        96.5790   87.6430  164.0860 C.3   463  LEU463      0.0284
      6  CG        96.7370   86.3940  164.9450 C.3   463  LEU463      0.0019
      7  CD1       96.4030   85.1730  164.1090 C.3   463  LEU463      0.0001
      8  CD2       98.1690   86.3210  165.4950 C.3   463  LEU463      0.0001
      9  N         98.4430   90.3710  163.6980 N.am  464  PRO464     -0.2729
     10  CA        98.8560   91.3540  162.6970 C.3   464  PRO464      0.1401
     11  C         98.4330   90.7970  161.3410 C.2   464  PRO464      0.2269
     12  O         98.8390   89.7010  160.9670 O.2   464  PRO464     -0.2865
     13  CB       100.3710   91.4000  162.8710 C.3   464  PRO464      0.0296
     14  CG       100.7020   90.0150  163.3980 C.3   464  PRO464      0.0237
     15  CD        99.6060   89.7970  164.3980 C.3   464  PRO464      0.0939
     16  N        104.0360   77.5680  163.3780 N.3   476  VAL476     -0.1231
     17  CA       104.7670   78.0110  164.5650 C.3   476  VAL476      0.1692
     18  C        104.3850   79.3250  165.2680 C.2   476  VAL476      0.2592
     19  O        104.4780   79.4090  166.4950 O.2   476  VAL476     -0.2718
     20  CB       106.2780   78.0620  164.2490 C.3   476  VAL476      0.0266
     21  CG1      107.0550   78.4410  165.4890 C.3   476  VAL476      0.0020
     22  CG2      106.7470   76.7120  163.7130 C.3   476  VAL476      0.0020
     23  N        103.9510   80.3320  164.5090 N.am  477  LYS477     -0.1966
     24  CA       103.6120   81.6460  165.0680 C.3   477  LYS477      0.1728
     25  C        102.3410   81.7850  165.9050 C.2   477  LYS477      0.2616
     26  O        101.8770   82.9040  166.1510 O.2   477  LYS477     -0.2715
     27  CB       103.5660   82.6670  163.9450 C.3   477  LYS477      0.0311
     28  CG       104.7990   82.6510  163.0860 C.3   477  LYS477      0.0038
     29  CD       104.7760   83.7570  162.0560 C.3   477  LYS477      0.0206
     30  CE       106.0150   83.7490  161.1940 C.3   477  LYS477      0.1093
     31  NZ       105.9130   84.7630  160.1090 N.3   477  LYS477     -0.1314
     32  N        101.7900   80.6620  166.3550 N.am  478  LEU478     -0.1963
     33  CA       100.5630   80.6610  167.1480 C.3   478  LEU478      0.1728
     34  C        100.7690   79.8450  168.4190 C.2   478  LEU478      0.2617
     35  O        101.6520   78.9950  168.4650 O.2   478  LEU478     -0.2715
     36  CB        99.4200   80.0310  166.3370 C.3   478  LEU478      0.0311
     37  CG        99.0170   80.6420  164.9920 C.3   478  LEU478      0.0022
     38  CD1       98.0470   79.7610  164.2700 C.3   478  LEU478      0.0001
     39  CD2       98.3970   81.9780  165.2330 C.3   478  LEU478      0.0001
     40  N         99.9560   80.0970  169.4460 N.am  479  SER479     -0.1936
     41  CA       100.0580   79.3370  170.7020 C.3   479  SER479      0.2055
     42  C         99.5820   77.8900  170.4670 C.2   479  SER479      0.2644
     43  O         99.4000   77.4540  169.3180 O.2   479  SER479     -0.2714
     44  CB        99.2440   80.0170  171.8140 C.3   479  SER479      0.2130
     45  OG        98.5120   79.0930  172.5730 O.3   479  SER479     -0.2179
     46  N         99.4290   77.1280  171.5380 N.am  480  GLY480     -0.1939
     47  CA        98.9840   75.7620  171.3600 C.3   480  GLY480      0.2014
     48  C         97.4960   75.8080  171.1920 C.2   480  GLY480      0.2639
     49  O         96.9670   75.3220  170.2030 O.2   480  GLY480     -0.2714
     50  N         96.8350   76.4200  172.1680 N.am  481  GLY481     -0.1939
     51  CA        95.3960   76.5450  172.1370 C.3   481  GLY481      0.2014
     52  C         94.9460   77.1910  170.8490 C.2   481  GLY481      0.2638
     53  O         93.7970   77.0480  170.4380 O.2   481  GLY481     -0.2714
     54  N         95.8520   77.9100  170.2050 N.am  482  GLN482     -0.1977
     55  CA        95.5190   78.5600  168.9630 C.3   482  GLN482      0.1601
     56  C         95.5260   77.5510  167.8240 C.2   482  GLN482      0.2287
     57  O         94.4720   77.2400  167.2710 O.2   482  GLN482     -0.2864
     58  CB        96.4660   79.7270  168.7160 C.3   482  GLN482      0.0394
     59  CG        95.7890   81.0430  169.0310 C.3   482  GLN482      0.0908
     60  CD        96.7290   82.1630  169.4520 C.2   482  GLN482      0.2608
     61  OE1       97.8860   82.2720  168.9910 O.2   482  GLN482     -0.2717
     62  NE2       96.2220   83.0290  170.3270 N.am  482  GLN482     -0.0878
     63  N         95.5570   71.4190  174.2340 N.3   507  ALA507     -0.1245
     64  CA        96.1970   72.6980  174.5840 C.3   507  ALA507      0.1562
     65  C         95.3730   73.9130  174.9910 C.2   507  ALA507      0.2260
     66  O         95.9070   75.0290  175.0260 O.2   507  ALA507     -0.2867
     67  CB        97.1320   73.1190  173.4510 C.3   507  ALA507      0.0290
     68  N         93.0880   76.2440  177.6160 N.3   509  ASP509     -0.1239
     69  CA        92.9710   76.5210  179.0390 C.3   509  ASP509      0.1674
     70  C         91.5830   76.0690  179.4450 C.2   509  ASP509      0.2266
     71  O         90.7840   75.6840  178.5960 O.2   509  ASP509     -0.2867
     72  CB        93.0940   78.0060  179.2920 C.3   509  ASP509      0.1410
     73  CG        92.1130   78.7940  178.4750 C.2   509  ASP509      0.3668
     74  OD1       92.2950   78.8640  177.2410 O.co2 509  ASP509     -0.2456
     75  OD2       91.1550   79.3250  179.0680 O.co2 509  ASP509     -0.2456
@<TRIPOS>BOND
     1    31    30    1
     2    12    11    2
     3    30    29    1
     4    11    10    1
     5    29    28    1
     6    10    13    1
     7    10     9    1
     8    13    14    1
     9     4     3    2
    10    28    27    1
    11    16    17    1
    12    14    15    1
    13     9     3   am
    14     9    15    1
    15    22    20    1
    16     3     2    1
    17    27    24    1
    18     5     2    1
    19     5     6    1
    20     7     6    1
    21    20    17    1
    22    20    21    1
    23    38    37    1
    24    23    24    1
    25    23    18   am
    26    17    18    1
    27     2     1    1
    28     6     8    1
    29    37    39    1
    30    37    36    1
    31    24    25    1
    32    18    19    2
    33    25    26    2
    34    25    32   am
    35    36    33    1
    36    32    33    1
    37    33    34    1
    38    57    56    2
    39    56    55    1
    40    34    35    2
    41    34    40   am
    42    58    55    1
    43    58    59    1
    44    55    54    1
    45    61    60    2
    46    59    60    1
    47    43    42    2
    48    40    41    1
    49    60    62   am
    50    49    48    2
    51    54    52   am
    52    53    52    2
    53    42    41    1
    54    42    46   am
    55    41    44    1
    56    52    51    1
    57    48    47    1
    58    48    50   am
    59    47    46    1
    60    44    45    1
    61    51    50    1
    62    67    64    1
    63    63    64    1
    64    64    65    1
    65    65    66    2
    66    74    73   ar
    67    68    69    1
    68    73    75   ar
    69    73    72    1
    70    71    70    2
    71    69    72    1
    72    69    70    1
