@<TRIPOS>MOLECULE
tmp/2onjA01.pdb
 145 138 0 0 0
SMALL
GASTEIGER

@<TRIPOS>ATOM
      1  N        104.5320   56.1590  157.2290 N.3   113  ALA113     -0.1231
      2  CA       104.9650   55.8900  158.5930 C.3   113  ALA113      0.1694
      3  C        106.3160   55.1820  158.6200 C.2   113  ALA113      0.2592
      4  O        107.0440   55.2700  159.6120 O.2   113  ALA113     -0.2718
      5  CB       103.9300   55.0520  159.3220 C.3   113  ALA113      0.0304
      6  N        106.6540   54.4870  157.5360 N.am  114  ASN114     -0.1974
      7  CA       107.9190   53.7610  157.4640 C.3   114  ASN114      0.1688
      8  C        108.8440   54.3320  156.3970 C.2   114  ASN114      0.2292
      9  O        109.7810   53.6660  155.9460 O.2   114  ASN114     -0.2864
     10  CB       107.6690   52.2850  157.1580 C.3   114  ASN114      0.1181
     11  CG       106.6030   51.6800  158.0350 C.2   114  ASN114      0.2629
     12  OD1      106.7730   51.5470  159.2440 O.2   114  ASN114     -0.2716
     13  ND2      105.4860   51.3120  157.4260 N.am  114  ASN114     -0.0877
     14  N         99.2900   46.3550  163.3600 N.3   349  TYR349     -0.1227
     15  CA        99.9680   47.2100  162.3890 C.3   349  TYR349      0.1736
     16  C        100.7970   46.3670  161.4170 C.2   349  TYR349      0.2595
     17  O        100.9760   46.7400  160.2510 O.2   349  TYR349     -0.2718
     18  CB       100.8480   48.2500  163.0800 C.3   349  TYR349      0.0548
     19  CG       100.0610   49.3930  163.6470 C.ar  349  TYR349     -0.0200
     20  CD1       99.5260   49.3170  164.9180 C.ar  349  TYR349     -0.0009
     21  CD2       99.8080   50.5330  162.8890 C.ar  349  TYR349     -0.0009
     22  CE1       98.7570   50.3330  165.4270 C.ar  349  TYR349      0.0417
     23  CE2       99.0370   51.5670  163.3910 C.ar  349  TYR349      0.0417
     24  CZ        98.5130   51.4560  164.6660 C.ar  349  TYR349      0.1957
     25  OH        97.7440   52.4620  165.2030 O.3   349  TYR349     -0.2866
     26  N        101.2930   45.2290  161.9000 N.am  350  ASN350     -0.1974
     27  CA       102.0880   44.3260  161.0750 C.3   350  ASN350      0.1688
     28  C        101.8040   42.8880  161.4620 C.2   350  ASN350      0.2292
     29  O        101.2760   42.6330  162.5430 O.2   350  ASN350     -0.2864
     30  CB       103.5730   44.6350  161.2270 C.3   350  ASN350      0.1181
     31  CG       103.9340   46.0030  160.6830 C.2   350  ASN350      0.2629
     32  OD1      103.7210   46.2900  159.5030 O.2   350  ASN350     -0.2716
     33  ND2      104.4770   46.8590  161.5430 N.am  350  ASN350     -0.0877
     34  N        104.2340   41.7210  164.6840 N.3   353  GLU353     -0.1245
     35  CA       103.8120   42.2360  165.9860 C.3   353  GLU353      0.1567
     36  C        102.5250   41.6440  166.5250 C.2   353  GLU353      0.2260
     37  O        101.9080   40.7880  165.9070 O.2   353  GLU353     -0.2867
     38  CB       103.6510   43.7600  165.9280 C.3   353  GLU353      0.0388
     39  CG       104.9490   44.5410  166.0470 C.3   353  GLU353      0.1160
     40  CD       105.3910   45.1630  164.7430 C.2   353  GLU353      0.3649
     41  OE1      104.6130   45.9590  164.1770 O.co2 353  GLU353     -0.2457
     42  OE2      106.5170   44.8590  164.2920 O.co2 353  GLU353     -0.2457
     43  N         96.8150   45.3230  168.3780 N.3   356  ILE356     -0.1245
     44  CA        96.6130   46.4320  169.2840 C.3   356  ILE356      0.1561
     45  C         95.1540   46.4320  169.7010 C.2   356  ILE356      0.2260
     46  O         94.8380   46.5840  170.8780 O.2   356  ILE356     -0.2867
     47  CB        97.0050   47.7420  168.6220 C.3   356  ILE356      0.0252
     48  CG1       98.4240   47.5920  168.0740 C.3   356  ILE356      0.0019
     49  CG2       96.9840   48.8910  169.6340 C.3   356  ILE356      0.0019
     50  CD1       99.2860   48.8270  168.2170 C.3   356  ILE356      0.0001
     51  N         97.0270   55.4430  178.5220 N.3   376  SER376     -0.1202
     52  CA        97.6450   55.8940  177.2850 C.3   376  SER376      0.2020
     53  C         98.1820   54.7060  176.5120 C.2   376  SER376      0.2619
     54  O         98.7040   53.7630  177.1090 O.2   376  SER376     -0.2717
     55  CB        98.7780   56.8820  177.5720 C.3   376  SER376      0.2103
     56  OG        99.3700   57.3340  176.3650 O.3   376  SER376     -0.2182
     57  N         98.0420   54.7460  175.1890 N.am  377  GLY377     -0.1942
     58  CA        98.5090   53.6480  174.3610 C.3   377  GLY377      0.2014
     59  C         97.6050   52.4130  174.3740 C.2   377  GLY377      0.2639
     60  O         98.0260   51.3390  173.9350 O.2   377  GLY377     -0.2714
     61  N         96.3590   52.5780  174.8360 N.am  378  GLY378     -0.1939
     62  CA        95.3960   51.4800  174.9050 C.3   378  GLY378      0.2014
     63  C         94.8440   51.0070  173.5680 C.2   378  GLY378      0.2639
     64  O         94.6640   49.8080  173.3550 O.2   378  GLY378     -0.2714
     65  N         94.5650   51.9520  172.6780 N.am  379  GLY379     -0.1939
     66  CA        94.0660   51.6030  171.3720 C.3   379  GLY379      0.2014
     67  C         93.2080   52.7050  170.8170 C.2   379  GLY379      0.2639
     68  O         93.0830   52.8420  169.6080 O.2   379  GLY379     -0.2714
     69  N         92.6480   53.5170  171.7020 N.am  380  LYS380     -0.1963
     70  CA        91.7460   54.5840  171.2890 C.3   380  LYS380      0.1728
     71  C         92.0740   55.2290  169.9570 C.2   380  LYS380      0.2617
     72  O         91.2700   55.1900  169.0340 O.2   380  LYS380     -0.2715
     73  CB        91.6650   55.6510  172.3590 C.3   380  LYS380      0.0311
     74  CG        91.0370   55.1750  173.6360 C.3   380  LYS380      0.0038
     75  CD        91.7320   55.8640  174.7780 C.3   380  LYS380      0.0206
     76  CE        93.2510   55.7690  174.5930 C.3   380  LYS380      0.1093
     77  NZ        94.0010   56.5100  175.6320 N.3   380  LYS380     -0.1314
     78  N         93.2460   55.8300  169.8410 N.am  381  SER381     -0.1936
     79  CA        93.6020   56.4490  168.5860 C.3   381  SER381      0.2055
     80  C         93.4850   55.4390  167.4700 C.2   381  SER381      0.2643
     81  O         92.7810   55.6760  166.4950 O.2   381  SER381     -0.2714
     82  CB        95.0080   56.9710  168.6480 C.3   381  SER381      0.2130
     83  OG        95.0770   57.9160  169.6770 O.3   381  SER381     -0.2179
     84  N         94.1560   54.3000  167.6240 N.am  382  THR382     -0.1950
     85  CA        94.1370   53.2490  166.6080 C.3   382  THR382      0.1897
     86  C         92.7210   52.8770  166.1760 C.2   382  THR382      0.2313
     87  O         92.4250   52.8470  164.9830 O.2   382  THR382     -0.2863
     88  CB        94.8580   51.9780  167.0990 C.3   382  THR382      0.1794
     89  OG1       96.0910   52.3260  167.7510 O.3   382  THR382     -0.2208
     90  CG2       95.1800   51.0880  165.9140 C.3   382  THR382      0.0378
     91  N         93.5790   52.7380  157.8380 N.3   391  TYR391     -0.1241
     92  CA        94.1790   51.4050  157.8700 C.3   391  TYR391      0.1605
     93  C         92.9880   50.4590  157.8110 C.2   391  TYR391      0.2264
     94  O         91.9390   50.7360  158.3910 O.2   391  TYR391     -0.2867
     95  CB        94.9090   51.1200  159.1830 C.3   391  TYR391      0.0534
     96  CG        96.3090   51.6650  159.3320 C.ar  391  TYR391     -0.0201
     97  CD1       96.5510   52.8200  160.0710 C.ar  391  TYR391     -0.0009
     98  CD2       97.4010   50.9770  158.8120 C.ar  391  TYR391     -0.0009
     99  CE1       97.8410   53.2720  160.2980 C.ar  391  TYR391      0.0417
    100  CE2       98.6980   51.4190  159.0300 C.ar  391  TYR391      0.0417
    101  CZ        98.9140   52.5650  159.7770 C.ar  391  TYR391      0.1957
    102  OH       100.2060   52.9810  160.0200 O.3   391  TYR391     -0.2866
    103  N         94.8930   64.2470  167.2670 N.3   422  GLN422     -0.1245
    104  CA        95.5380   64.8200  168.4490 C.3   422  GLN422      0.1566
    105  C         96.7570   65.6750  168.1010 C.2   422  GLN422      0.2260
    106  O         97.0200   66.6950  168.7540 O.2   422  GLN422     -0.2867
    107  CB        95.9700   63.7140  169.4120 C.3   422  GLN422      0.0367
    108  CG        96.4300   64.2180  170.7690 C.3   422  GLN422      0.0905
    109  CD        96.8510   63.0940  171.6960 C.2   422  GLN422      0.2608
    110  OE1       96.8010   61.9220  171.3280 O.2   422  GLN422     -0.2717
    111  NE2       97.2960   63.2240  172.9390 N.am  422  GLN422     -0.0878
    112  N         89.7790   63.3680  168.6710 N.3   502  ASP502     -0.1225
    113  CA        90.8360   62.7400  169.4610 C.3   502  ASP502      0.1805
    114  C         91.5750   63.7610  170.3210 C.2   502  ASP502      0.2597
    115  O         92.5780   64.3320  169.8960 O.2   502  ASP502     -0.2718
    116  CB        91.8330   62.0480  168.5340 C.3   502  ASP502      0.1424
    117  CG        92.4930   60.8540  169.1820 C.2   502  ASP502      0.3668
    118  OD1       92.5490   60.8120  170.4290 O.co2 502  ASP502     -0.2456
    119  OD2       92.9650   59.9600  168.4450 O.co2 502  ASP502     -0.2456
    120  N         91.0890   63.9820  171.5370 N.am  503  GLU503     -0.1979
    121  CA        91.7150   64.9520  172.4280 C.3   503  GLU503      0.1602
    122  C         91.7920   66.2750  171.6850 C.2   503  GLU503      0.2287
    123  O         92.8800   66.7630  171.4000 O.2   503  GLU503     -0.2864
    124  CB        93.1410   64.5310  172.7860 C.3   503  GLU503      0.0415
    125  CG        93.3120   63.1130  173.2730 C.3   503  GLU503      0.1163
    126  CD        94.6920   62.8850  173.8450 C.2   503  GLU503      0.3649
    127  OE1       95.3090   63.8830  174.2610 O.co2 503  GLU503     -0.2457
    128  OE2       95.1590   61.7260  173.8680 O.co2 503  GLU503     -0.2457
    129  N         87.6270   60.8550  171.9930 N.3   532  VAL532     -0.1245
    130  CA        88.6960   60.2380  172.7570 C.3   532  VAL532      0.1561
    131  C         89.0690   61.3550  173.6960 C.2   532  VAL532      0.2260
    132  O         89.1510   62.5110  173.2800 O.2   532  VAL532     -0.2867
    133  CB        89.9150   59.9540  171.9280 C.3   532  VAL532      0.0252
    134  CG1       90.9620   59.2960  172.7900 C.3   532  VAL532      0.0019
    135  CG2       89.5530   59.0850  170.7890 C.3   532  VAL532      0.0019
    136  N         91.1790   62.4250  177.6930 N.3   534  HIS534     -0.1241
    137  CA        91.8750   62.1160  178.9290 C.3   534  HIS534      0.1621
    138  C         91.3040   62.9750  180.0640 C.2   534  HIS534      0.2264
    139  O         91.1670   62.5020  181.1890 O.2   534  HIS534     -0.2867
    140  CB        93.3770   62.3510  178.7550 C.3   534  HIS534      0.0745
    141  CG        94.0770   61.2690  177.9880 C.ar  534  HIS534      0.0817
    142  ND1       93.9710   59.9350  178.3200 N.ar  534  HIS534     -0.2268
    143  CD2       94.9280   61.3250  176.9350 C.ar  534  HIS534      0.1154
    144  CE1       94.7290   59.2180  177.5060 C.ar  534  HIS534      0.1986
    145  NE2       95.3210   60.0370  176.6570 N.ar  534  HIS534     -0.2212
@<TRIPOS>BOND
     1     9     8    2
     2     8     7    1
     3    10     7    1
     4    10    11    1
     5     1     2    1
     6    13    11   am
     7     7     6    1
     8     6     3   am
     9    93    92    1
    10    93    94    2
    11    91    92    1
    12    92    95    1
    13    11    12    2
    14     2     3    1
    15     2     5    1
    16     3     4    2
    17    98   100   ar
    18    98    96   ar
    19   100   101   ar
    20    95    96    1
    21    96    97   ar
    22    32    31    2
    23   101   102    1
    24   101    99   ar
    25    97    99   ar
    26    17    16    2
    27    31    30    1
    28    31    33   am
    29    27    30    1
    30    27    28    1
    31    27    26    1
    32    16    26   am
    33    16    15    1
    34    28    29    2
    35    15    18    1
    36    15    14    1
    37    21    23   ar
    38    21    19   ar
    39    18    19    1
    40    23    24   ar
    41    19    20   ar
    42    41    40   ar
    43    42    40   ar
    44    24    25    1
    45    24    22   ar
    46    34    35    1
    47    40    39    1
    48    20    22   ar
    49    87    86    2
    50    37    36    2
    51    90    88    1
    52    38    35    1
    53    38    39    1
    54    35    36    1
    55    86    85    1
    56    81    80    2
    57    85    88    1
    58    85    84    1
    59    88    89    1
    60   103   104    1
    61    80    84   am
    62    80    79    1
    63    48    50    1
    64    48    47    1
    65   105   104    1
    66   105   106    2
    67    43    44    1
    68   119   117   ar
    69   104   107    1
    70   116   117    1
    71   116   113    1
    72    79    82    1
    73    79    78    1
    74    47    44    1
    75    47    49    1
    76    82    83    1
    77   112   113    1
    78    72    71    2
    79   117   118   ar
    80    44    45    1
    81   107   108    1
    82   113   114    1
    83    68    67    2
    84    45    46    2
    85    78    71   am
    86   115   114    2
    87    71    70    1
    88   114   120   am
    89   108   109    1
    90   135   133    1
    91    67    66    1
    92    67    69   am
    93    70    69    1
    94    70    73    1
    95   110   109    2
    96    66    65    1
    97   123   122    2
    98   120   121    1
    99   122   121    1
   100   109   111   am
   101   133   130    1
   102   133   134    1
   103   129   130    1
   104    73    74    1
   105   121   124    1
   106    65    63   am
   107   130   131    1
   108   124   125    1
   109   125   126    1
   110   132   131    2
   111    64    63    2
   112    63    62    1
   113    74    75    1
   114   126   128   ar
   115   126   127   ar
   116    60    59    2
   117    58    59    1
   118    58    57    1
   119    59    61   am
   120    76    75    1
   121    76    77    1
   122    61    62    1
   123    57    53   am
   124    56    55    1
   125    53    54    2
   126    53    52    1
   127   145   143   ar
   128   145   144   ar
   129   143   141   ar
   130    52    55    1
   131    52    51    1
   132   144   142   ar
   133   136   137    1
   134   141   142   ar
   135   141   140    1
   136   140   137    1
   137   137   138    1
   138   138   139    2
