@<TRIPOS>MOLECULE
tmp/2onmE00.pdb
 169 164 0 0 0
SMALL
GASTEIGER

@<TRIPOS>ATOM
      1  N         50.6080   83.3310   34.3070 N.3   159  ILE159     -0.1231
      2  CA        49.8650   84.4540   34.8550 C.3   159  ILE159      0.1692
      3  C         49.5540   84.1250   36.3120 C.2   159  ILE159      0.2592
      4  O         48.8240   83.1720   36.5940 O.2   159  ILE159     -0.2718
      5  CB        48.5420   84.6650   34.0620 C.3   159  ILE159      0.0266
      6  CG1       48.8440   84.7320   32.5610 C.3   159  ILE159      0.0019
      7  CG2       47.7940   85.9140   34.5570 C.3   159  ILE159      0.0020
      8  CD1       47.5970   84.7320   31.7090 C.3   159  ILE159      0.0001
      9  N         50.1020   84.9190   37.2270 N.am  160  ILE160     -0.1966
     10  CA        49.9190   84.6880   38.6540 C.3   160  ILE160      0.1712
     11  C         49.1630   85.7830   39.4360 C.2   160  ILE160      0.2458
     12  O         49.1960   86.9730   39.0820 O.2   160  ILE160     -0.2730
     13  CB        51.2870   84.4160   39.2980 C.3   160  ILE160      0.0289
     14  CG1       52.1620   85.6580   39.2110 C.3   160  ILE160      0.0022
     15  CG2       52.0120   83.2580   38.5380 C.3   160  ILE160      0.0023
     16  CD1       53.5070   85.4570   39.8020 C.3   160  ILE160      0.0001
     17  N         48.4360   85.3850   40.4960 N.am  161  PRO161     -0.2716
     18  CA        47.6490   86.2890   41.3540 C.3   161  PRO161      0.1536
     19  C         48.4700   87.0570   42.3930 C.2   161  PRO161      0.2598
     20  O         49.7020   86.9730   42.4240 O.2   161  PRO161     -0.2715
     21  CB        46.6570   85.3430   42.0150 C.3   161  PRO161      0.0310
     22  CG        47.4770   84.1370   42.2000 C.3   161  PRO161      0.0237
     23  CD        48.2070   83.9880   40.8780 C.3   161  PRO161      0.0939
     24  N         47.7670   87.7540   43.2800 N.am  162  TRP162     -0.1974
     25  CA        48.4070   88.5900   44.2970 C.3   162  TRP162      0.1640
     26  C         48.4260   88.1090   45.7300 C.2   162  TRP162      0.2290
     27  O         49.0550   88.7530   46.5740 O.2   162  TRP162     -0.2864
     28  CB        47.7530   89.9730   44.3040 C.3   162  TRP162      0.0576
     29  CG        46.2220   89.9020   44.2570 C.ar  162  TRP162      0.0006
     30  CD1       45.4180   90.0520   43.1480 C.ar  162  TRP162      0.0946
     31  CD2       45.3440   89.5900   45.3440 C.ar  162  TRP162      0.0152
     32  NE1       44.1070   89.8380   43.4850 N.ar  162  TRP162     -0.2442
     33  CE2       44.0320   89.5550   44.8240 C.ar  162  TRP162      0.0810
     34  CE3       45.5410   89.3340   46.7090 C.ar  162  TRP162      0.0012
     35  CZ2       42.9250   89.2770   45.6210 C.ar  162  TRP162      0.0191
     36  CZ3       44.4400   89.0520   47.5000 C.ar  162  TRP162      0.0001
     37  CH2       43.1470   89.0280   46.9520 C.ar  162  TRP162      0.0015
     38  N         53.3790   86.9880   33.8180 N.3   186  LYS186     -0.1245
     39  CA        52.5700   88.1790   34.0390 C.3   186  LYS186      0.1561
     40  C         52.1630   88.1930   35.5140 C.2   186  LYS186      0.2260
     41  O         51.4120   87.3380   35.9470 O.2   186  LYS186     -0.2867
     42  CB        51.3150   88.1440   33.1700 C.3   186  LYS186      0.0271
     43  CG        50.8850   89.5270   32.7310 C.3   186  LYS186      0.0035
     44  CD        50.5400   90.4370   33.9020 C.3   186  LYS186      0.0206
     45  CE        49.1850   90.0580   34.4980 C.3   186  LYS186      0.1093
     46  NZ        48.6480   91.0870   35.4340 N.3   186  LYS186     -0.1314
     47  N         50.6100   89.9380   39.1070 N.3   188  ALA188     -0.1231
     48  CA        49.4560   90.7400   39.4570 C.3   188  ALA188      0.1694
     49  C         49.7740   92.2290   39.5810 C.2   188  ALA188      0.2592
     50  O         50.8140   92.6100   40.1400 O.2   188  ALA188     -0.2718
     51  CB        48.8220   90.2160   40.7490 C.3   188  ALA188      0.0304
     52  N         48.8740   93.0660   39.0540 N.am  189  GLU189     -0.1966
     53  CA        49.0350   94.5240   39.1200 C.3   189  GLU189      0.1733
     54  C         49.0830   95.0310   40.5440 C.2   189  GLU189      0.2616
     55  O         49.7080   96.0480   40.8200 O.2   189  GLU189     -0.2715
     56  CB        47.9300   95.2650   38.3730 C.3   189  GLU189      0.0429
     57  CG        46.5170   94.8150   38.6610 C.3   189  GLU189      0.1163
     58  CD        46.0270   93.6980   37.7120 C.2   189  GLU189      0.3649
     59  OE1       46.7540   92.6850   37.5020 O.co2 189  GLU189     -0.2457
     60  OE2       44.8930   93.8310   37.1850 O.co2 189  GLU189     -0.2457
     61  N         48.4540   94.3000   41.4560 N.am  190  GLN190     -0.1977
     62  CA        48.4370   94.6970   42.8520 C.3   190  GLN190      0.1601
     63  C         49.7550   94.4020   43.5700 C.2   190  GLN190      0.2287
     64  O         50.1640   95.1410   44.4680 O.2   190  GLN190     -0.2864
     65  CB        47.2940   94.0110   43.5760 C.3   190  GLN190      0.0394
     66  CG        45.9350   94.2580   42.9600 C.3   190  GLN190      0.0908
     67  CD        45.4580   93.1500   42.0170 C.2   190  GLN190      0.2608
     68  OE1       44.2670   92.8220   41.9830 O.2   190  GLN190     -0.2717
     69  NE2       46.3860   92.5630   41.2580 N.am  190  GLN190     -0.0878
     70  N         45.4680   92.6500   33.4570 N.3   219  GLY219     -0.1210
     71  CA        44.9950   91.3770   32.9560 C.3   219  GLY219      0.1940
     72  C         44.4390   91.3760   31.5480 C.2   219  GLY219      0.2453
     73  O         44.9260   90.6330   30.6900 O.2   219  GLY219     -0.2732
     74  N         43.4040   92.1750   31.2740 N.am  220  PRO220     -0.2728
     75  CA        42.7900   92.2450   29.9420 C.3   220  PRO220      0.1401
     76  C         43.7830   92.6640   28.8430 C.2   220  PRO220      0.2269
     77  O         43.5290   92.4920   27.6390 O.2   220  PRO220     -0.2865
     78  CB        41.7030   93.3010   30.1280 C.3   220  PRO220      0.0296
     79  CG        41.3560   93.2030   31.5990 C.3   220  PRO220      0.0237
     80  CD        42.7160   93.0720   32.2210 C.3   220  PRO220      0.0939
     81  N         47.9100   90.0190   30.2520 N.3   223  GLY223     -0.1210
     82  CA        47.4850   88.6430   30.4540 C.3   223  GLY223      0.1956
     83  C         46.8130   88.0330   29.2380 C.2   223  GLY223      0.2611
     84  O         47.0970   86.9050   28.8380 O.2   223  GLY223     -0.2717
     85  N         45.8900   88.7770   28.6510 N.am  224  ALA224     -0.1979
     86  CA        45.1780   88.2880   27.4750 C.3   224  ALA224      0.1597
     87  C         46.1330   88.0960   26.2950 C.2   224  ALA224      0.2287
     88  O         45.9440   87.2010   25.4810 O.2   224  ALA224     -0.2864
     89  CB        44.0590   89.2490   27.0960 C.3   224  ALA224      0.0319
     90  N         47.5470   79.3980   34.4400 N.3   237  PHE237     -0.1227
     91  CA        46.8640   80.5070   35.0810 C.3   237  PHE237      0.1736
     92  C         46.3510   80.1490   36.4670 C.2   237  PHE237      0.2596
     93  O         45.8790   79.0380   36.6990 O.2   237  PHE237     -0.2718
     94  CB        45.7270   80.9880   34.1830 C.3   237  PHE237      0.0547
     95  CG        44.7900   81.9480   34.8510 C.ar  237  PHE237     -0.0202
     96  CD1       45.0950   83.2980   34.9270 C.ar  237  PHE237     -0.0042
     97  CD2       43.5980   81.4960   35.4250 C.ar  237  PHE237     -0.0042
     98  CE1       44.2320   84.1850   35.5710 C.ar  237  PHE237     -0.0003
     99  CE2       42.7310   82.3780   36.0700 C.ar  237  PHE237     -0.0003
    100  CZ        43.0490   83.7200   36.1430 C.ar  237  PHE237     -0.0000
    101  N         46.4580   81.1010   37.3880 N.am  238  THR238     -0.1939
    102  CA        45.9970   80.9080   38.7590 C.3   238  THR238      0.2028
    103  C         45.1960   82.1480   39.1400 C.2   238  THR238      0.2643
    104  O         45.7410   83.2440   39.1570 O.2   238  THR238     -0.2714
    105  CB        47.1870   80.7400   39.7360 C.3   238  THR238      0.1808
    106  OG1       47.9600   79.6040   39.3530 O.3   238  THR238     -0.2208
    107  CG2       46.7010   80.5430   41.1870 C.3   238  THR238      0.0379
    108  N         43.9010   81.9830   39.3920 N.am  239  GLY239     -0.1939
    109  CA        43.0810   83.1240   39.7600 C.3   239  GLY239      0.2014
    110  C         41.6040   82.7900   39.8280 C.2   239  GLY239      0.2639
    111  O         41.2410   81.6820   40.2040 O.2   239  GLY239     -0.2714
    112  N         40.7550   83.7470   39.4590 N.am  240  SER240     -0.1949
    113  CA        39.3050   83.5580   39.4780 C.3   240  SER240      0.1924
    114  C         38.8200   82.5840   38.4030 C.2   240  SER240      0.2314
    115  O         39.4190   82.4830   37.3350 O.2   240  SER240     -0.2863
    116  CB        38.5940   84.9010   39.2950 C.3   240  SER240      0.2116
    117  OG        38.8090   85.4470   37.9960 O.3   240  SER240     -0.2180
    118  N         37.9570   84.4520   35.0490 N.3   243  ILE243     -0.1245
    119  CA        39.0540   84.6840   34.1190 C.3   243  ILE243      0.1561
    120  C         39.5950   83.3660   33.5620 C.2   243  ILE243      0.2260
    121  O         40.0220   83.3090   32.4050 O.2   243  ILE243     -0.2867
    122  CB        40.1950   85.4960   34.7800 C.3   243  ILE243      0.0252
    123  CG1       39.6770   86.8820   35.1950 C.3   243  ILE243      0.0019
    124  CG2       41.3690   85.6430   33.8170 C.3   243  ILE243      0.0019
    125  CD1       39.1390   87.7250   34.0240 C.3   243  ILE243      0.0001
    126  N         38.0700   82.5510   30.3890 N.3   246  VAL246     -0.1231
    127  CA        38.5440   83.4410   29.3390 C.3   246  VAL246      0.1692
    128  C         39.8440   82.8690   28.7500 C.2   246  VAL246      0.2591
    129  O         39.9930   82.7450   27.5370 O.2   246  VAL246     -0.2718
    130  CB        38.7900   84.8580   29.9050 C.3   246  VAL246      0.0266
    131  CG1       39.3320   85.7820   28.8240 C.3   246  VAL246      0.0020
    132  CG2       37.4940   85.4110   30.4850 C.3   246  VAL246      0.0020
    133  N         40.7480   82.4750   29.6360 N.am  247  ILE247     -0.1980
    134  CA        42.0350   81.9060   29.2560 C.3   247  ILE247      0.1595
    135  C         41.8760   80.6530   28.3780 C.2   247  ILE247      0.2287
    136  O         42.5180   80.5280   27.3290 O.2   247  ILE247     -0.2864
    137  CB        42.8490   81.5400   30.5260 C.3   247  ILE247      0.0276
    138  CG1       43.1500   82.7970   31.3370 C.3   247  ILE247      0.0022
    139  CG2       44.1280   80.8170   30.1630 C.3   247  ILE247      0.0022
    140  CD1       44.0660   83.7390   30.6510 C.3   247  ILE247      0.0001
    141  N         38.8400   94.6350   46.4930 N.3   343  GLN343     -0.1245
    142  CA        38.5770   93.4820   47.3410 C.3   343  GLN343      0.1566
    143  C         37.9140   93.8970   48.6590 C.2   343  GLN343      0.2260
    144  O         37.0110   93.2200   49.1650 O.2   343  GLN343     -0.2867
    145  CB        39.8690   92.7080   47.5890 C.3   343  GLN343      0.0367
    146  CG        40.2910   91.8950   46.3800 C.3   343  GLN343      0.0905
    147  CD        39.2150   90.9190   45.9910 C.2   343  GLN343      0.2608
    148  OE1       38.8120   90.0860   46.8030 O.2   343  GLN343     -0.2717
    149  NE2       38.7060   91.0380   44.7650 N.am  343  GLN343     -0.0878
    150  N         34.2820   94.3940   47.8980 N.3   346  LYS346     -0.1245
    151  CA        33.6510   93.1240   47.5420 C.3   346  LYS346      0.1561
    152  C         33.3580   92.3010   48.8090 C.2   346  LYS346      0.2260
    153  O         32.2960   91.6710   48.9350 O.2   346  LYS346     -0.2867
    154  CB        34.5390   92.3410   46.5660 C.3   346  LYS346      0.0271
    155  CG        33.7880   91.2650   45.7730 C.3   346  LYS346      0.0035
    156  CD        34.7270   90.4810   44.8630 C.3   346  LYS346      0.0206
    157  CE        33.9800   89.3920   44.0850 C.3   346  LYS346      0.1093
    158  NZ        34.9090   88.4170   43.4310 N.3   346  LYS346     -0.1314
    159  N         36.8980   85.3670   49.8190 N.3   395  PHE395     -0.1241
    160  CA        38.3280   85.7030   49.8000 C.3   395  PHE395      0.1605
    161  C         38.6630   86.7690   50.8270 C.2   395  PHE395      0.2264
    162  O         39.5250   87.6210   50.6020 O.2   395  PHE395     -0.2867
    163  CB        38.7450   86.1810   48.4060 C.3   395  PHE395      0.0534
    164  CG        39.9680   85.5120   47.8740 C.ar  395  PHE395     -0.0203
    165  CD1       40.0020   84.1360   47.7040 C.ar  395  PHE395     -0.0042
    166  CD2       41.0950   86.2610   47.5210 C.ar  395  PHE395     -0.0042
    167  CE1       41.1550   83.5000   47.1790 C.ar  395  PHE395     -0.0003
    168  CE2       42.2590   85.6370   46.9900 C.ar  395  PHE395     -0.0003
    169  CZ        42.2840   84.2570   46.8230 C.ar  395  PHE395     -0.0000
@<TRIPOS>BOND
     1    88    87    2
     2    87    86    1
     3    89    86    1
     4   136   135    2
     5    86    85    1
     6   129   128    2
     7    77    76    2
     8   135   134    1
     9    85    83   am
    10   128   127    1
    11   128   133   am
    12   131   130    1
    13    84    83    2
    14    76    75    1
    15    83    82    1
    16   134   133    1
    17   134   137    1
    18   127   130    1
    19   127   126    1
    20   130   132    1
    21    75    78    1
    22    75    74    1
    23    78    79    1
    24   139   137    1
    25    81    82    1
    26   137   138    1
    27   140   138    1
    28    73    72    2
    29    74    72   am
    30    74    80    1
    31    72    71    1
    32    79    80    1
    33     8     6    1
    34   121   120    2
    35     6     5    1
    36    43    42    1
    37    43    44    1
    38    71    70    1
    39    42    39    1
    40   120   119    1
    41   124   122    1
    42    38    39    1
    43    44    45    1
    44   125   123    1
    45    39    40    1
    46     5     7    1
    47     5     2    1
    48   119   122    1
    49   119   118    1
    50    94    95    1
    51    94    91    1
    52     1     2    1
    53    90    91    1
    54    45    46    1
    55   122   123    1
    56    95    96   ar
    57    95    97   ar
    58     2     3    1
    59    96    98   ar
    60    91    92    1
    61    97    99   ar
    62    40    41    2
    63    98   100   ar
    64    99   100   ar
    65     3     4    2
    66     3     9   am
    67    92    93    2
    68    92   101   am
    69    60    58   ar
    70     9    10    1
    71   115   114    2
    72   101   102    1
    73    59    58   ar
    74    58    57    1
    75   117   116    1
    76    56    57    1
    77    56    53    1
    78   114   113    1
    79    15    13    1
    80    10    13    1
    81    10    11    1
    82   102   103    1
    83   102   105    1
    84    52    53    1
    85    52    49   am
    86    12    11    2
    87    47    48    1
    88    53    54    1
    89   103   104    2
    90   103   108   am
    91    14    13    1
    92    14    16    1
    93   116   113    1
    94   106   105    1
    95   108   109    1
    96    11    17   am
    97    48    49    1
    98    48    51    1
    99   112   113    1
   100   112   110   am
   101    49    50    2
   102   105   107    1
   103   109   110    1
   104   110   111    2
   105    17    23    1
   106    17    18    1
   107    54    55    2
   108    54    61   am
   109    23    22    1
   110    69    67   am
   111    18    21    1
   112    18    19    1
   113    61    62    1
   114    68    67    2
   115    21    22    1
   116    67    66    1
   117    19    20    2
   118    19    24   am
   119    62    63    1
   120    62    65    1
   121    66    65    1
   122    30    32   ar
   123    30    29   ar
   124    24    25    1
   125   158   157    1
   126    32    33   ar
   127    63    64    2
   128   157   156    1
   129    29    28    1
   130    29    31   ar
   131    25    28    1
   132    25    26    1
   133   149   147   am
   134    33    31   ar
   135    33    35   ar
   136   156   155    1
   137    31    34   ar
   138    35    37   ar
   139    26    27    2
   140   155   154    1
   141   147   146    1
   142   147   148    2
   143   146   145    1
   144   141   142    1
   145   154   151    1
   146    34    36   ar
   147   169   168   ar
   148   169   167   ar
   149    37    36   ar
   150   168   166   ar
   151   167   165   ar
   152   142   145    1
   153   142   143    1
   154   166   164   ar
   155   151   150    1
   156   151   152    1
   157   165   164   ar
   158   164   163    1
   159   163   160    1
   160   143   144    2
   161   152   153    2
   162   160   159    1
   163   160   161    1
   164   162   161    2
