@<TRIPOS>MOLECULE
tmp/2oo0A01.pdb
 73 67 0 0 0
SMALL
GASTEIGER

@<TRIPOS>ATOM
      1  N        -27.1420   20.1610  -32.4580 N.3   173  VAL173     -0.1245
      2  CA       -27.9590   19.1110  -33.0910 C.3   173  VAL173      0.1561
      3  C        -29.4590   19.4390  -32.9890 C.2   173  VAL173      0.2260
      4  O        -30.1940   19.3210  -33.9750 O.2   173  VAL173     -0.2867
      5  CB       -27.6580   17.7090  -32.4870 C.3   173  VAL173      0.0252
      6  CG1      -28.5380   16.6190  -33.1260 C.3   173  VAL173      0.0019
      7  CG2      -26.1860   17.3560  -32.6650 C.3   173  VAL173      0.0019
      8  N        -27.1770   18.6740  -27.7090 N.3   211  GLY211     -0.1210
      9  CA       -26.0880   18.2490  -28.5950 C.3   211  GLY211      0.1956
     10  C        -25.2550   19.4250  -29.0870 C.2   211  GLY211      0.2612
     11  O        -25.0650   19.6030  -30.2880 O.2   211  GLY211     -0.2717
     12  N        -24.7570   20.2330  -28.1520 N.am  212  CYS212     -0.1970
     13  CA       -23.8470   21.3390  -28.4690 C.3   212  CYS212      0.1712
     14  C        -22.5920   20.8350  -29.2220 C.2   212  CYS212      0.2296
     15  O        -22.0310   19.7810  -28.8830 O.2   212  CYS212     -0.2864
     16  CB       -23.4660   22.0610  -27.1670 C.3   212  CYS212      0.0983
     17  SG       -22.0770   23.2160  -27.2270 S.3   212  CYS212     -0.0798
     18  N        -22.8550   16.1540  -23.8790 N.3   249  PRO249     -0.2102
     19  CA       -22.9460   14.8050  -24.3950 C.3   249  PRO249      0.1504
     20  C        -23.1510   13.7660  -23.2990 C.2   249  PRO249      0.2576
     21  O        -22.7110   13.9660  -22.1590 O.2   249  PRO249     -0.2718
     22  CB       -21.5730   14.5880  -25.0340 C.3   249  PRO249      0.0282
     23  CG       -20.6450   15.4560  -24.2450 C.3   249  PRO249      0.0208
     24  CD       -21.4740   16.6890  -23.9780 C.3   249  PRO249      0.0893
     25  N        -23.7620   12.6440  -23.6750 N.am  250  GLY250     -0.1943
     26  CA       -24.0860   11.5770  -22.7330 C.3   250  GLY250      0.2014
     27  C        -23.2560   10.3200  -22.8940 C.2   250  GLY250      0.2639
     28  O        -23.4920    9.3260  -22.2130 O.2   250  GLY250     -0.2714
     29  N        -22.2850   10.3630  -23.8060 N.am  251  SER251     -0.1949
     30  CA       -21.3230    9.2840  -23.9550 C.3   251  SER251      0.1924
     31  C        -20.0030    9.8360  -24.4670 C.2   251  SER251      0.2314
     32  O        -19.8770   11.0400  -24.7400 O.2   251  SER251     -0.2863
     33  CB       -21.8400    8.1980  -24.9050 C.3   251  SER251      0.2116
     34  OG       -21.5630    8.5330  -26.2560 O.3   251  SER251     -0.2180
     35  N        -18.6750    8.5570  -27.2200 N.3   253  ASP253     -0.1225
     36  CA       -18.7650    8.3700  -28.6690 C.3   253  ASP253      0.1805
     37  C        -19.1650    9.6550  -29.4220 C.2   253  ASP253      0.2597
     38  O        -20.0840    9.6460  -30.2520 O.2   253  ASP253     -0.2718
     39  CB       -19.7550    7.2330  -28.9750 C.3   253  ASP253      0.1424
     40  CG       -19.7480    6.8220  -30.4450 C.2   253  ASP253      0.3668
     41  OD1      -18.6490    6.8040  -31.0610 O.co2 253  ASP253     -0.2456
     42  OD2      -20.8470    6.5290  -30.9840 O.co2 253  ASP253     -0.2456
     43  N        -18.4640   10.7490  -29.1390 N.am  254  VAL254     -0.1980
     44  CA       -18.7850   12.0730  -29.6720 C.3   254  VAL254      0.1595
     45  C        -17.4890   12.8280  -29.9830 C.2   254  VAL254      0.2287
     46  O        -16.4330   12.5070  -29.4270 O.2   254  VAL254     -0.2864
     47  CB       -19.6420   12.9210  -28.6710 C.3   254  VAL254      0.0276
     48  CG1      -21.0060   12.2800  -28.4290 C.3   254  VAL254      0.0022
     49  CG2      -18.8990   13.1340  -27.3480 C.3   254  VAL254      0.0022
     50  N        -29.3470   14.6260  -21.1170 N.3   287  ARG287     -0.1245
     51  CA       -28.6080   13.6240  -21.8930 C.3   287  ARG287      0.1563
     52  C        -27.3460   13.1510  -21.1710 C.2   287  ARG287      0.2260
     53  O        -27.0520   11.9540  -21.1360 O.2   287  ARG287     -0.2867
     54  CB       -28.2240   14.2370  -23.2430 C.3   287  ARG287      0.0307
     55  CG       -27.6860   13.2700  -24.2860 C.3   287  ARG287      0.0489
     56  CD       -27.1710   14.0760  -25.5150 C.3   287  ARG287      0.2205
     57  NE       -28.2020   14.9280  -26.1310 N.pl3 287  ARG287     -0.0865
     58  CZ       -29.1520   14.4900  -26.9680 C.cat 287  ARG287      0.5346
     59  NH1      -30.0340   15.3420  -27.4840 N.pl3 287  ARG287      0.1354
     60  NH2      -29.2260   13.2000  -27.2960 N.pl3 287  ARG287      0.1354
     61  N        -27.6260    8.8760  -21.0660 N.3   291  ALA291     -0.1245
     62  CA       -27.4710    8.2500  -22.4000 C.3   291  ALA291      0.1562
     63  C        -26.7570    6.8960  -22.3610 C.2   291  ALA291      0.2260
     64  O        -27.3110    5.8970  -22.8250 O.2   291  ALA291     -0.2867
     65  CB       -26.7940    9.2080  -23.4170 C.3   291  ALA291      0.0290
     66  N        -25.8890    3.4570  -25.6720 N.3   382  ASN382     -0.1240
     67  CA       -26.1190    4.9040  -25.5330 C.3   382  ASN382      0.1653
     68  C        -27.5560    5.2990  -25.9020 C.2   382  ASN382      0.2266
     69  O        -27.7950    6.3280  -26.5720 O.2   382  ASN382     -0.2867
     70  CB       -25.0950    5.7070  -26.3540 C.3   382  ASN382      0.1155
     71  CG       -23.6510    5.3230  -26.0420 C.2   382  ASN382      0.2627
     72  OD1      -22.8330    5.1560  -26.9550 O.2   382  ASN382     -0.2716
     73  ND2      -23.3290    5.1880  -24.7610 N.am  382  ASN382     -0.0877
@<TRIPOS>BOND
     1     4     3    2
     2     6     5    1
     3     2     3    1
     4     2     5    1
     5     2     1    1
     6     7     5    1
     7    41    40   ar
     8    42    40   ar
     9    40    39    1
    10    11    10    2
    11    38    37    2
    12    45    44    1
    13    45    46    2
    14    44    43    1
    15    44    47    1
    16    37    43   am
    17    37    36    1
    18    14    15    2
    19    14    13    1
    20    10     9    1
    21    10    12   am
    22    39    36    1
    23    47    48    1
    24    47    49    1
    25    36    35    1
    26     9     8    1
    27    13    12    1
    28    13    16    1
    29    59    58    1
    30    60    58    1
    31    17    16    1
    32    58    57    2
    33    72    71    2
    34    69    68    2
    35    70    71    1
    36    70    67    1
    37    34    33    1
    38    57    56    1
    39    71    73   am
    40    68    67    1
    41    66    67    1
    42    56    55    1
    43    22    19    1
    44    22    23    1
    45    33    30    1
    46    32    31    2
    47    31    30    1
    48    19    18    1
    49    19    20    1
    50    55    54    1
    51    23    24    1
    52    24    18    1
    53    30    29    1
    54    29    27   am
    55    25    20   am
    56    25    26    1
    57    65    62    1
    58    20    21    2
    59    54    51    1
    60    27    26    1
    61    27    28    2
    62    64    63    2
    63    62    63    1
    64    62    61    1
    65    51    52    1
    66    51    50    1
    67    52    53    2
