@<TRIPOS>MOLECULE
tmp/2oo0A00.pdb
 147 141 0 0 0
SMALL
GASTEIGER

@<TRIPOS>ATOM
      1  N        -32.7890   17.0810  -16.0140 N.3    77  ALA77      -0.1245
      2  CA       -33.9150   17.3280  -16.9140 C.3    77  ALA77       0.1562
      3  C        -34.7600   16.0510  -17.0080 C.2    77  ALA77       0.2260
      4  O        -34.4660   15.1610  -17.8150 O.2    77  ALA77      -0.2867
      5  CB       -33.3970   17.7580  -18.3070 C.3    77  ALA77       0.0290
      6  N        -37.5070   15.2530  -18.3160 N.3    79  LYS79      -0.1245
      7  CA       -38.0500   14.9500  -19.6480 C.3    79  LYS79       0.1561
      8  C        -37.1640   14.0310  -20.5050 C.2    79  LYS79       0.2260
      9  O        -37.6630   13.2900  -21.3400 O.2    79  LYS79      -0.2867
     10  CB       -38.3780   16.2360  -20.4060 C.3    79  LYS79       0.0271
     11  CG       -37.1830   17.1390  -20.6800 C.3    79  LYS79       0.0035
     12  CD       -37.7020   18.4850  -21.1610 C.3    79  LYS79       0.0206
     13  CE       -36.7150   19.6050  -20.9250 C.3    79  LYS79       0.1093
     14  NZ       -36.7760   20.0870  -19.5030 N.3    79  LYS79      -0.1314
     15  N        -35.1490   19.5510  -13.0500 N.3    98  ASP98      -0.1239
     16  CA       -35.8130   20.4470  -13.9790 C.3    98  ASP98       0.1674
     17  C        -37.0710   19.7180  -14.4490 C.2    98  ASP98       0.2266
     18  O        -36.9940   18.6580  -15.1020 O.2    98  ASP98      -0.2867
     19  CB       -34.8520   20.8070  -15.1330 C.3    98  ASP98       0.1410
     20  CG       -35.5800   21.2140  -16.4290 C.2    98  ASP98       0.3668
     21  OD1      -36.7320   21.6950  -16.3610 O.co2  98  ASP98      -0.2456
     22  OD2      -34.9840   21.0470  -17.5230 O.co2  98  ASP98      -0.2456
     23  N        -38.7770   24.6510  -15.3900 N.3   121  ALA121     -0.1245
     24  CA       -38.0280   25.3200  -16.4680 C.3   121  ALA121      0.1562
     25  C        -38.6920   25.2090  -17.8420 C.2   121  ALA121      0.2260
     26  O        -38.0250   24.9570  -18.8520 O.2   121  ALA121     -0.2867
     27  CB       -36.5750   24.7850  -16.5350 C.3   121  ALA121      0.0290
     28  N        -35.2630   33.4750  -19.2340 N.3   164  ARG164     -0.1245
     29  CA       -34.5100   32.6650  -20.1960 C.3   164  ARG164      0.1563
     30  C        -34.1420   33.4970  -21.4120 C.2   164  ARG164      0.2260
     31  O        -35.0170   34.1190  -22.0280 O.2   164  ARG164     -0.2867
     32  CB       -35.3130   31.4250  -20.6340 C.3   164  ARG164      0.0307
     33  CG       -34.4980   30.5220  -21.5580 C.3   164  ARG164      0.0489
     34  CD       -35.1630   29.2090  -21.7340 C.3   164  ARG164      0.2205
     35  NE       -34.6220   28.4300  -22.8460 N.pl3 164  ARG164     -0.0865
     36  CZ       -35.1550   27.2770  -23.2310 C.cat 164  ARG164      0.5346
     37  NH1      -36.2250   26.8110  -22.5870 N.pl3 164  ARG164      0.1354
     38  NH2      -34.6480   26.6020  -24.2530 N.pl3 164  ARG164      0.1354
     39  N        -33.2430   25.1210  -30.1730 N.3   176  LEU176     -0.1245
     40  CA       -34.3360   25.5070  -29.2780 C.3   176  LEU176      0.1561
     41  C        -34.6400   27.0000  -29.3330 C.2   176  LEU176      0.2260
     42  O        -35.7260   27.4320  -28.9120 O.2   176  LEU176     -0.2867
     43  CB       -34.0170   25.0930  -27.8190 C.3   176  LEU176      0.0270
     44  CG       -33.5570   23.6350  -27.6020 C.3   176  LEU176      0.0019
     45  CD1      -33.0480   23.4170  -26.1820 C.3   176  LEU176      0.0001
     46  CD2      -34.6770   22.6260  -27.9360 C.3   176  LEU176      0.0001
     47  N        -37.6900   29.3640  -27.8750 N.3   180  PHE180     -0.1241
     48  CA       -37.5130   29.9380  -26.5290 C.3   180  PHE180      0.1605
     49  C        -36.2460   30.7950  -26.4120 C.2   180  PHE180      0.2264
     50  O        -35.2610   30.5490  -27.1100 O.2   180  PHE180     -0.2867
     51  CB       -37.4330   28.8290  -25.4640 C.3   180  PHE180      0.0534
     52  CG       -38.6500   27.9250  -25.3970 C.ar  180  PHE180     -0.0203
     53  CD1      -39.8950   28.4310  -25.0450 C.ar  180  PHE180     -0.0042
     54  CD2      -38.5280   26.5610  -25.6820 C.ar  180  PHE180     -0.0042
     55  CE1      -41.0230   27.5940  -24.9770 C.ar  180  PHE180     -0.0003
     56  CE2      -39.6430   25.7060  -25.6100 C.ar  180  PHE180     -0.0003
     57  CZ       -40.8890   26.2260  -25.2550 C.ar  180  PHE180     -0.0000
     58  N        -30.2200   27.8990  -22.7610 N.3   207  HIS207     -0.1241
     59  CA       -29.8850   26.5830  -23.2490 C.3   207  HIS207      0.1621
     60  C        -29.1950   26.7500  -24.5930 C.2   207  HIS207      0.2264
     61  O        -29.7600   27.3510  -25.5020 O.2   207  HIS207     -0.2867
     62  CB       -31.1280   25.6930  -23.3600 C.3   207  HIS207      0.0745
     63  CG       -30.8070   24.2360  -23.4230 C.ar  207  HIS207      0.0817
     64  ND1      -29.9040   23.7130  -24.3190 N.ar  207  HIS207     -0.2268
     65  CD2      -31.2370   23.1940  -22.6750 C.ar  207  HIS207      0.1154
     66  CE1      -29.8120   22.4080  -24.1400 C.ar  207  HIS207      0.1986
     67  NE2      -30.6210   22.0670  -23.1570 N.ar  207  HIS207     -0.2212
     68  N        -29.5750   21.3040  -27.4470 N.3   210  SER210     -0.1217
     69  CA       -29.1910   19.9350  -27.1200 C.3   210  SER210      0.1889
     70  C        -28.1580   19.4520  -28.1560 C.2   210  SER210      0.2288
     71  O        -28.2310   19.8170  -29.3370 O.2   210  SER210     -0.2866
     72  CB       -30.4220   19.0270  -27.0490 C.3   210  SER210      0.2089
     73  OG       -30.1240   17.8110  -26.3770 O.3   210  SER210     -0.2183
     74  N        -28.5330   22.7910  -20.5300 N.3   246  GLY246     -0.1210
     75  CA       -27.9870   21.4840  -20.8760 C.3   246  GLY246      0.1956
     76  C        -27.1090   21.5330  -22.1150 C.2   246  GLY246      0.2612
     77  O        -26.3560   22.4870  -22.3030 O.2   246  GLY246     -0.2717
     78  N        -27.1820   20.4920  -22.9400 N.am  247  GLY247     -0.1942
     79  CA       -26.4160   20.4550  -24.1890 C.3   247  GLY247      0.2014
     80  C        -25.1740   19.5880  -24.1560 C.2   247  GLY247      0.2638
     81  O        -24.5090   19.4030  -25.1920 O.2   247  GLY247     -0.2714
     82  N        -24.8690   19.0540  -22.9710 N.am  248  PHE248     -0.1973
     83  CA       -23.7270   18.1510  -22.7620 C.3   248  PHE248      0.1639
     84  C        -23.9400   16.7700  -23.3920 C.2   248  PHE248      0.2290
     85  O        -25.0630   16.2540  -23.4280 O.2   248  PHE248     -0.2864
     86  CB       -23.4190   18.0230  -21.2580 C.3   248  PHE248      0.0560
     87  CG       -23.4050   19.3510  -20.5310 C.ar  248  PHE248     -0.0200
     88  CD1      -22.2670   20.1630  -20.5580 C.ar  248  PHE248     -0.0042
     89  CD2      -24.5320   19.8010  -19.8430 C.ar  248  PHE248     -0.0042
     90  CE1      -22.2480   21.3910  -19.9040 C.ar  248  PHE248     -0.0003
     91  CE2      -24.5290   21.0330  -19.1890 C.ar  248  PHE248     -0.0003
     92  CZ       -23.3820   21.8370  -19.2280 C.ar  248  PHE248     -0.0000
     93  N        -29.1400   22.3320  -16.1280 N.3   284  GLU284     -0.1231
     94  CA       -30.2560   21.4300  -16.3620 C.3   284  GLU284      0.1684
     95  C        -29.8440   20.2750  -17.2740 C.2   284  GLU284      0.2434
     96  O        -30.4610   20.0820  -18.3200 O.2   284  GLU284     -0.2733
     97  CB       -31.4080   22.1870  -17.0310 C.3   284  GLU284      0.0402
     98  CG       -31.9120   23.4010  -16.2880 C.3   284  GLU284      0.1161
     99  CD       -32.6810   24.3570  -17.1940 C.2   284  GLU284      0.3649
    100  OE1      -32.7290   24.1370  -18.4350 O.co2 284  GLU284     -0.2457
    101  OE2      -33.2320   25.3450  -16.6660 O.co2 284  GLU284     -0.2457
    102  N        -28.8090   19.4980  -16.8880 N.am  285  PRO285     -0.2718
    103  CA       -28.3460   18.4530  -17.8030 C.3   285  PRO285      0.1535
    104  C        -29.3750   17.3150  -17.9140 C.2   285  PRO285      0.2599
    105  O        -29.9690   16.9230  -16.9120 O.2   285  PRO285     -0.2715
    106  CB       -27.0690   17.9410  -17.1250 C.3   285  PRO285      0.0310
    107  CG       -27.2750   18.2350  -15.6640 C.3   285  PRO285      0.0237
    108  CD       -28.0490   19.5070  -15.6220 C.3   285  PRO285      0.0939
    109  N        -29.5890   16.7910  -19.1170 N.am  286  GLY286     -0.1941
    110  CA       -30.4760   15.6460  -19.2750 C.3   286  GLY286      0.2014
    111  C        -29.6740   14.5020  -19.8380 C.2   286  GLY286      0.2639
    112  O        -29.3520   13.5480  -19.1320 O.2   286  GLY286     -0.2714
    113  N        -29.3470   14.6260  -21.1170 N.am  287  ARG287     -0.1963
    114  CA       -28.6080   13.6240  -21.8930 C.3   287  ARG287      0.1729
    115  C        -27.3460   13.1510  -21.1710 C.2   287  ARG287      0.2616
    116  O        -27.0520   11.9540  -21.1360 O.2   287  ARG287     -0.2715
    117  CB       -28.2240   14.2370  -23.2430 C.3   287  ARG287      0.0348
    118  CG       -27.6860   13.2700  -24.2860 C.3   287  ARG287      0.0492
    119  CD       -27.1710   14.0760  -25.5150 C.3   287  ARG287      0.2205
    120  NE       -28.2020   14.9280  -26.1310 N.pl3 287  ARG287     -0.0865
    121  CZ       -29.1520   14.4900  -26.9680 C.cat 287  ARG287      0.5346
    122  NH1      -30.0340   15.3420  -27.4840 N.pl3 287  ARG287      0.1354
    123  NH2      -29.2260   13.2000  -27.2960 N.pl3 287  ARG287      0.1354
    124  N        -26.6210   14.1070  -20.5960 N.am  288  TYR288     -0.1974
    125  CA       -25.3900   13.8120  -19.8650 C.3   288  TYR288      0.1639
    126  C        -25.5340   12.6850  -18.8430 C.2   288  TYR288      0.2290
    127  O        -24.6510   11.8350  -18.7380 O.2   288  TYR288     -0.2864
    128  CB       -24.8350   15.0610  -19.1620 C.3   288  TYR288      0.0560
    129  CG       -23.6800   14.7040  -18.2580 C.ar  288  TYR288     -0.0198
    130  CD1      -22.3950   14.5190  -18.7810 C.ar  288  TYR288     -0.0009
    131  CD2      -23.8850   14.4800  -16.8980 C.ar  288  TYR288     -0.0009
    132  CE1      -21.3300   14.1520  -17.9470 C.ar  288  TYR288      0.0417
    133  CE2      -22.8350   14.1220  -16.0610 C.ar  288  TYR288      0.0417
    134  CZ       -21.5670   13.9630  -16.5890 C.ar  288  TYR288      0.1957
    135  OH       -20.5470   13.5920  -15.7520 O.3   288  TYR288     -0.2866
    136  N        -33.8620   10.6040  -24.6200 N.3   386  TYR386     -0.1241
    137  CA       -34.8520   10.9220  -25.6770 C.3   386  TYR386      0.1605
    138  C        -35.2080    9.6840  -26.5040 C.2   386  TYR386      0.2264
    139  O        -35.3020    9.7250  -27.7390 O.2   386  TYR386     -0.2867
    140  CB       -34.3650   12.0990  -26.5580 C.3   386  TYR386      0.0534
    141  CG       -33.9810   13.2800  -25.6960 C.ar  386  TYR386     -0.0201
    142  CD1      -34.9600   14.0060  -25.0140 C.ar  386  TYR386     -0.0009
    143  CD2      -32.6340   13.6350  -25.5070 C.ar  386  TYR386     -0.0009
    144  CE1      -34.6200   15.0860  -24.1970 C.ar  386  TYR386      0.0417
    145  CE2      -32.2800   14.7090  -24.6700 C.ar  386  TYR386      0.0417
    146  CZ       -33.2840   15.4160  -24.0190 C.ar  386  TYR386      0.1957
    147  OH       -32.9650   16.4680  -23.1950 O.3   386  TYR386     -0.2866
@<TRIPOS>BOND
     1    39    40    1
     2    71    70    2
     3    41    40    1
     4    41    42    2
     5    40    43    1
     6    70    69    1
     7    46    44    1
     8    47    48    1
     9    43    44    1
    10   139   138    2
    11    44    45    1
    12   122   121    1
    13    68    69    1
    14   123   121    1
    15    69    72    1
    16    50    49    2
    17    72    73    1
    18   121   120    2
    19   140   141    1
    20   140   137    1
    21    48    49    1
    22    48    51    1
    23   138   137    1
    24   120   119    1
    25   141   143   ar
    26   141   142   ar
    27    54    56   ar
    28    54    52   ar
    29   137   136    1
    30    56    57   ar
    31   119   118    1
    32   143   145   ar
    33    61    60    2
    34    51    52    1
    35    52    53   ar
    36    57    55   ar
    37    81    80    2
    38    53    55   ar
    39   142   144   ar
    40   145   146   ar
    41    60    59    1
    42    64    66   ar
    43    64    63   ar
    44   118   117    1
    45    38    36    1
    46   144   146   ar
    47    79    80    1
    48    79    78    1
    49    80    82   am
    50    66    67   ar
    51   146   147    1
    52    85    84    2
    53    63    62    1
    54    63    65   ar
    55    84    83    1
    56    62    59    1
    57    59    58    1
    58   117   114    1
    59    36    35    2
    60    36    37    1
    61    67    65   ar
    62    82    83    1
    63    78    76   am
    64    35    34    1
    65    83    86    1
    66    77    76    2
    67    76    75    1
    68    31    30    2
    69   114   115    1
    70   114   113    1
    71    34    33    1
    72    33    32    1
    73    30    29    1
    74     9     8    2
    75    86    87    1
    76   115   116    2
    77   115   124   am
    78    12    13    1
    79    12    11    1
    80   113   111   am
    81    13    14    1
    82    75    74    1
    83    11    10    1
    84    32    29    1
    85   124   125    1
    86    88    87   ar
    87    88    90   ar
    88    87    89   ar
    89     8     7    1
    90    10     7    1
    91    29    28    1
    92    90    92   ar
    93   125   128    1
    94   125   126    1
    95    89    91   ar
    96   111   110    1
    97   111   112    2
    98     7     6    1
    99   110   109    1
   100    92    91   ar
   101   128   129    1
   102   109   104   am
   103    26    25    2
   104   126   127    2
   105   130   129   ar
   106   130   132   ar
   107   100    99   ar
   108    96    95    2
   109     5     2    1
   110   129   131   ar
   111   132   134   ar
   112   104   103    1
   113   104   105    2
   114    25    24    1
   115     4     3    2
   116   103   106    1
   117   103   102    1
   118    22    20   ar
   119    95   102   am
   120    95    94    1
   121    99   101   ar
   122    99    98    1
   123   106   107    1
   124    97    94    1
   125    97    98    1
   126     3     2    1
   127     2     1    1
   128   131   133   ar
   129   102   108    1
   130   134   133   ar
   131   134   135    1
   132    27    24    1
   133    24    23    1
   134    20    21   ar
   135    20    19    1
   136    94    93    1
   137   107   108    1
   138    19    16    1
   139    18    17    2
   140    17    16    1
   141    16    15    1
