@<TRIPOS>MOLECULE
tmp/2oo8A00.pdb
 204 192 0 0 0
SMALL
GASTEIGER

@<TRIPOS>ATOM
      1  N         47.6860   -6.0550   78.6330 N.3     3  VAL3       -0.1245
      2  CA        49.1450   -6.0410   78.7820 C.3     3  VAL3        0.1561
      3  C         49.6190   -6.7080   80.0790 C.2     3  VAL3        0.2260
      4  O         49.1860   -6.3520   81.1790 O.2     3  VAL3       -0.2867
      5  CB        49.7390   -4.6060   78.6430 C.3     3  VAL3        0.0252
      6  CG1       51.2610   -4.6410   78.6880 C.3     3  VAL3        0.0019
      7  CG2       49.2780   -3.9640   77.3460 C.3     3  VAL3        0.0019
      8  N         56.9470   -6.5220   78.0280 N.3    13  ALA13      -0.1245
      9  CA        55.5290   -6.2410   78.1640 C.3    13  ALA13       0.1562
     10  C         54.8790   -6.7000   76.8670 C.2    13  ALA13       0.2260
     11  O         55.3650   -6.3780   75.7780 O.2    13  ALA13      -0.2867
     12  CB        55.2970   -4.7750   78.3870 C.3    13  ALA13       0.0290
     13  N         51.2550   -7.1210   74.6260 N.3    15  LYS15      -0.1245
     14  CA        49.8590   -6.7940   74.3620 C.3    15  LYS15       0.1561
     15  C         49.1500   -8.0380   73.8210 C.2    15  LYS15       0.2260
     16  O         49.5160   -8.5510   72.7610 O.2    15  LYS15      -0.2867
     17  CB        49.7750   -5.6580   73.3390 C.3    15  LYS15       0.0271
     18  CG        48.3870   -5.0530   73.1610 C.3    15  LYS15       0.0035
     19  CD        48.3320   -3.6010   73.6210 C.3    15  LYS15       0.0206
     20  CE        48.9730   -2.6730   72.5930 C.3    15  LYS15       0.1093
     21  NZ        48.5610   -1.2540   72.7570 N.3    15  LYS15      -0.1314
     22  N         43.6930   -1.7410   64.4140 N.3    25  ASP25      -0.1239
     23  CA        44.6260   -0.9700   65.2400 C.3    25  ASP25       0.1674
     24  C         45.8740   -1.7670   65.5970 C.2    25  ASP25       0.2266
     25  O         46.9780   -1.2210   65.5700 O.2    25  ASP25      -0.2867
     26  CB        43.9410   -0.4280   66.5030 C.3    25  ASP25       0.1410
     27  CG        42.7930    0.5370   66.1880 C.2    25  ASP25       0.3668
     28  OD1       42.6830    0.9860   65.0270 O.co2  25  ASP25      -0.2456
     29  OD2       41.9900    0.8260   67.1050 O.co2  25  ASP25      -0.2456
     30  N         49.3400   -0.6950   64.2970 N.3    29  GLU29      -0.1245
     31  CA        50.3910   -0.4990   65.2730 C.3    29  GLU29       0.1567
     32  C         51.6390   -1.3120   64.9490 C.2    29  GLU29       0.2260
     33  O         52.7390   -0.7610   64.9500 O.2    29  GLU29      -0.2867
     34  CB        49.8910   -0.8560   66.6630 C.3    29  GLU29       0.0388
     35  CG        50.9310   -0.7000   67.7410 C.3    29  GLU29       0.1160
     36  CD        50.3110   -0.4710   69.0900 C.2    29  GLU29       0.3649
     37  OE1       49.0840   -0.2400   69.1550 O.co2  29  GLU29      -0.2457
     38  OE2       51.0460   -0.5150   70.0840 O.co2  29  GLU29      -0.2457
     39  N         53.4630    0.1600   62.0440 N.3    32  VAL32      -0.1231
     40  CA        54.2150    1.3440   62.4430 C.3    32  VAL32       0.1692
     41  C         55.5190    0.9500   63.1260 C.2    32  VAL32       0.2591
     42  O         56.5920    1.3630   62.6880 O.2    32  VAL32      -0.2718
     43  CB        53.3770    2.3060   63.3370 C.3    32  VAL32       0.0266
     44  CG1       54.2560    3.3900   63.9430 C.3    32  VAL32       0.0020
     45  CG2       52.2710    2.9500   62.5280 C.3    32  VAL32       0.0020
     46  N         55.4240    0.1210   64.1650 N.am   33  LEU33      -0.1980
     47  CA        56.5820   -0.2400   64.9860 C.3    33  LEU33       0.1596
     48  C         57.7110   -0.9130   64.2040 C.2    33  LEU33       0.2287
     49  O         58.8860   -0.7180   64.5250 O.2    33  LEU33      -0.2864
     50  CB        56.1660   -1.0910   66.1980 C.3    33  LEU33       0.0297
     51  CG        55.1390   -0.5320   67.2010 C.3    33  LEU33       0.0022
     52  CD1       55.1120   -1.3760   68.4640 C.3    33  LEU33       0.0001
     53  CD2       55.4030    0.9220   67.5660 C.3    33  LEU33       0.0001
     54  N         59.9420    1.6570   62.4830 N.3    36  LEU36      -0.1245
     55  CA        60.6370    2.5880   63.3790 C.3    36  LEU36       0.1561
     56  C         62.1090    2.2750   63.5910 C.2    36  LEU36       0.2260
     57  O         62.8840    3.1600   63.9490 O.2    36  LEU36      -0.2867
     58  CB        59.9410    2.6380   64.7310 C.3    36  LEU36       0.0270
     59  CG        58.5400    3.2500   64.7200 C.3    36  LEU36       0.0019
     60  CD1       58.1040    3.4750   66.1400 C.3    36  LEU36       0.0001
     61  CD2       58.5180    4.5390   63.9000 C.3    36  LEU36       0.0001
     62  N         63.6690    5.2690   71.8010 N.3    42  ILE42      -0.1231
     63  CA        62.3420    4.8080   71.3780 C.3    42  ILE42       0.1692
     64  C         62.1130    3.4000   71.9290 C.2    42  ILE42       0.2591
     65  O         63.0840    2.6900   72.2330 O.2    42  ILE42      -0.2718
     66  CB        62.1650    4.8010   69.8430 C.3    42  ILE42       0.0266
     67  CG1       63.1160    3.7880   69.1730 C.3    42  ILE42       0.0019
     68  CG2       62.3320    6.1930   69.2700 C.3    42  ILE42       0.0020
     69  CD1       62.5590    3.1220   67.8640 C.3    42  ILE42       0.0001
     70  N         60.8470    3.0050   72.0840 N.am   43  ILE43      -0.1980
     71  CA        60.5060    1.6340   72.5060 C.3    43  ILE43       0.1595
     72  C         61.1070    0.5710   71.5730 C.2    43  ILE43       0.2287
     73  O         61.3830    0.8340   70.4030 O.2    43  ILE43      -0.2864
     74  CB        58.9710    1.3800   72.6320 C.3    43  ILE43       0.0276
     75  CG1       58.2600    1.6110   71.2880 C.3    43  ILE43       0.0022
     76  CG2       58.3860    2.1740   73.7930 C.3    43  ILE43       0.0022
     77  CD1       57.1040    0.6990   71.0360 C.3    43  ILE43       0.0001
     78  N         51.8630   -8.8720   70.8270 N.3    53  LEU53      -0.1245
     79  CA        52.8390   -7.8580   70.4170 C.3    53  LEU53       0.1561
     80  C         53.6910   -7.5300   71.6270 C.2    53  LEU53       0.2260
     81  O         53.1800   -7.0890   72.6500 O.2    53  LEU53      -0.2867
     82  CB        52.1040   -6.6110   69.9030 C.3    53  LEU53       0.0270
     83  CG        52.7870   -5.2890   69.5150 C.3    53  LEU53       0.0019
     84  CD1       53.9870   -5.4870   68.6010 C.3    53  LEU53       0.0001
     85  CD2       51.7660   -4.3740   68.8490 C.3    53  LEU53       0.0001
     86  N         57.0970   -5.6860   73.4790 N.3    55  ILE55      -0.1231
     87  CA        58.2220   -4.7310   73.5120 C.3    55  ILE55       0.1692
     88  C         59.0750   -4.9260   74.7690 C.2    55  ILE55       0.2592
     89  O         58.6070   -5.4740   75.7660 O.2    55  ILE55      -0.2718
     90  CB        57.7670   -3.2350   73.3870 C.3    55  ILE55       0.0266
     91  CG1       56.9950   -2.7890   74.6270 C.3    55  ILE55       0.0019
     92  CG2       56.9650   -3.0120   72.1010 C.3    55  ILE55       0.0020
     93  CD1       57.0480   -1.2820   74.8670 C.3    55  ILE55       0.0001
     94  N         60.3190   -4.4650   74.7260 N.am   56  GLU56      -0.1966
     95  CA        61.1830   -4.5430   75.9040 C.3    56  GLU56       0.1733
     96  C         60.5450   -3.8320   77.1040 C.2    56  GLU56       0.2616
     97  O         59.9260   -2.7670   76.9620 O.2    56  GLU56      -0.2715
     98  CB        62.5850   -4.0100   75.6100 C.3    56  GLU56       0.0429
     99  CG        63.5500   -4.2040   76.7690 C.3    56  GLU56       0.1163
    100  CD        64.9990   -3.8620   76.4500 C.2    56  GLU56       0.3649
    101  OE1       65.8490   -4.0600   77.3520 O.co2  56  GLU56      -0.2457
    102  OE2       65.3040   -3.4090   75.3230 O.co2  56  GLU56      -0.2457
    103  N         60.6830   -4.4520   78.2740 N.am   57  TYR57      -0.1960
    104  CA        60.0710   -3.9700   79.5050 C.3    57  TYR57       0.1771
    105  C         60.8110   -2.7580   80.0650 C.2    57  TYR57       0.2619
    106  O         62.0490   -2.6570   79.9550 O.2    57  TYR57      -0.2715
    107  CB        59.9950   -5.0920   80.5620 C.3    57  TYR57       0.0574
    108  CG        59.0970   -4.7480   81.7390 C.ar   57  TYR57      -0.0198
    109  CD1       57.7140   -4.6540   81.5760 C.ar   57  TYR57      -0.0009
    110  CD2       59.6310   -4.4970   83.0120 C.ar   57  TYR57      -0.0009
    111  CE1       56.8790   -4.3240   82.6420 C.ar   57  TYR57       0.0417
    112  CE2       58.7980   -4.1670   84.0960 C.ar   57  TYR57       0.0417
    113  CZ        57.4220   -4.0760   83.8950 C.ar   57  TYR57       0.1957
    114  OH        56.5720   -3.7460   84.9330 O.3    57  TYR57      -0.2866
    115  N         60.0410   -1.8400   80.6470 N.am   58  ALA58      -0.1977
    116  CA        60.5900   -0.6640   81.3070 C.3    58  ALA58       0.1597
    117  C         60.1750   -0.7340   82.7640 C.2    58  ALA58       0.2287
    118  O         59.0000   -0.5210   83.0870 O.2    58  ALA58      -0.2864
    119  CB        60.0910    0.6250   80.6560 C.3    58  ALA58       0.0319
    120  N         58.4580    2.3460   84.7670 N.3    61  GLY61      -0.1225
    121  CA        57.1580    2.8600   84.3410 C.3    61  GLY61       0.1811
    122  C         57.2120    4.1400   83.5190 C.2    61  GLY61       0.2280
    123  O         58.2750    4.5470   83.0360 O.2    61  GLY61      -0.2866
    124  N         63.0310    9.8830   65.0130 N.3   108  LEU108     -0.1245
    125  CA        61.7460    9.5970   64.3790 C.3   108  LEU108      0.1561
    126  C         61.3420   10.6450   63.3280 C.2   108  LEU108      0.2260
    127  O         60.8990   10.2930   62.2410 O.2   108  LEU108     -0.2867
    128  CB        60.6340    9.4500   65.4360 C.3   108  LEU108      0.0270
    129  CG        60.7150    8.3110   66.4620 C.3   108  LEU108      0.0019
    130  CD1       59.5550    8.3940   67.4680 C.3   108  LEU108      0.0001
    131  CD2       60.7490    6.9340   65.7910 C.3   108  LEU108      0.0001
    132  N         58.1490   10.5220   60.6390 N.3   113  PHE113     -0.1241
    133  CA        57.1940   10.0760   61.6380 C.3   113  PHE113      0.1605
    134  C         56.6480   11.2820   62.4140 C.2   113  PHE113      0.2264
    135  O         57.4000   12.1750   62.8070 O.2   113  PHE113     -0.2867
    136  CB        57.8490    9.0740   62.5910 C.3   113  PHE113      0.0534
    137  CG        56.9620    8.6200   63.7070 C.ar  113  PHE113     -0.0203
    138  CD1       56.0940    7.5450   63.5320 C.ar  113  PHE113     -0.0042
    139  CD2       56.9920    9.2630   64.9450 C.ar  113  PHE113     -0.0042
    140  CE1       55.2660    7.1130   64.5870 C.ar  113  PHE113     -0.0003
    141  CE2       56.1790    8.8390   65.9860 C.ar  113  PHE113     -0.0003
    142  CZ        55.3150    7.7610   65.8050 C.ar  113  PHE113     -0.0000
    143  N         54.3340   11.9300   65.8100 N.3   115  HIS115     -0.1241
    144  CA        53.8890   11.1760   66.9710 C.3   115  HIS115      0.1621
    145  C         52.4010   11.3890   67.2200 C.2   115  HIS115      0.2264
    146  O         51.6360   10.4180   67.2830 O.2   115  HIS115     -0.2867
    147  CB        54.6810   11.5520   68.2310 C.3   115  HIS115      0.0745
    148  CG        54.3930   10.6550   69.3940 C.ar  115  HIS115      0.0817
    149  ND1       53.2600   10.7850   70.1660 N.ar  115  HIS115     -0.2268
    150  CD2       55.0680    9.5910   69.8920 C.ar  115  HIS115      0.1154
    151  CE1       53.2570    9.8520   71.1010 C.ar  115  HIS115      0.1986
    152  NE2       54.3500    9.1210   70.9620 N.ar  115  HIS115     -0.2212
    153  N         58.3520    6.1420   78.5050 N.3   124  LEU124     -0.1245
    154  CA        58.7710    5.1390   79.4970 C.3   124  LEU124      0.1561
    155  C         60.1560    5.4520   80.0660 C.2   124  LEU124      0.2260
    156  O         61.0410    5.9020   79.3380 O.2   124  LEU124     -0.2867
    157  CB        58.7430    3.7450   78.8810 C.3   124  LEU124      0.0270
    158  CG        57.3270    3.1910   78.6830 C.3   124  LEU124      0.0019
    159  CD1       57.3270    2.0150   77.7180 C.3   124  LEU124      0.0001
    160  CD2       56.7140    2.8140   80.0270 C.3   124  LEU124      0.0001
    161  N         60.4300    7.0220   73.9980 N.3   133  ILE133     -0.1231
    162  CA        59.1640    7.4220   73.3990 C.3   133  ILE133      0.1692
    163  C         58.2760    6.2050   73.1770 C.2   133  ILE133      0.2592
    164  O         58.7240    5.1870   72.6600 O.2   133  ILE133     -0.2718
    165  CB        59.3890    8.1400   72.0590 C.3   133  ILE133      0.0266
    166  CG1       60.2990    9.3600   72.2700 C.3   133  ILE133      0.0019
    167  CG2       58.0540    8.5230   71.4060 C.3   133  ILE133      0.0020
    168  CD1       60.9130    9.8160   71.0250 C.3   133  ILE133      0.0001
    169  N         57.0150    6.3300   73.5790 N.am  134  ALA134     -0.1966
    170  CA        56.0170    5.2990   73.3530 C.3   134  ALA134      0.1728
    171  C         54.7060    5.9800   73.0040 C.2   134  ALA134      0.2616
    172  O         54.6540    7.2010   72.8420 O.2   134  ALA134     -0.2715
    173  CB        55.8650    4.4410   74.6000 C.3   134  ALA134      0.0334
    174  N         53.6550    5.1840   72.8620 N.am  135  ASP135     -0.1957
    175  CA        52.3160    5.6930   72.6080 C.3   135  ASP135      0.1840
    176  C         51.3140    4.6370   73.0570 C.2   135  ASP135      0.2622
    177  O         51.1610    3.6060   72.3860 O.2   135  ASP135     -0.2715
    178  CB        52.1340    6.0090   71.1160 C.3   135  ASP135      0.1450
    179  CG        50.8180    6.7530   70.8170 C.2   135  ASP135      0.3671
    180  OD1       49.8810    6.7640   71.6540 O.co2 135  ASP135     -0.2456
    181  OD2       50.7250    7.3230   69.7180 O.co2 135  ASP135     -0.2456
    182  N         50.6530    4.8960   74.1880 N.am  136  PHE136     -0.1960
    183  CA        49.7240    3.9340   74.8220 C.3   136  PHE136      0.1771
    184  C         48.2630    4.1260   74.3900 C.2   136  PHE136      0.2620
    185  O         47.3850    3.3280   74.7600 O.2   136  PHE136     -0.2715
    186  CB        49.8220    3.9800   76.3730 C.3   136  PHE136      0.0574
    187  CG        51.2240    3.7950   76.9080 C.ar  136  PHE136     -0.0200
    188  CD1       51.8550    4.8210   77.6110 C.ar  136  PHE136     -0.0042
    189  CD2       51.9210    2.6160   76.6810 C.ar  136  PHE136     -0.0042
    190  CE1       53.1590    4.6670   78.1030 C.ar  136  PHE136     -0.0003
    191  CE2       53.2320    2.4500   77.1640 C.ar  136  PHE136     -0.0003
    192  CZ        53.8480    3.4790   77.8700 C.ar  136  PHE136     -0.0000
    193  N         48.0100    5.1820   73.6210 N.am  137  GLY137     -0.1940
    194  CA        46.6760    5.4630   73.1100 C.3   137  GLY137      0.2014
    195  C         45.9370    6.5300   73.8990 C.2   137  GLY137      0.2638
    196  O         46.3490    6.9300   75.0040 O.2   137  GLY137     -0.2714
    197  N         44.8330    6.9790   73.3110 N.am  138  LEU138     -0.1977
    198  CA        44.0030    8.0330   73.8530 C.3   138  LEU138      0.1596
    199  C         42.8820    7.4220   74.6880 C.2   138  LEU138      0.2287
    200  O         42.2330    8.1240   75.4800 O.2   138  LEU138     -0.2864
    201  CB        43.4320    8.8800   72.7100 C.3   138  LEU138      0.0297
    202  CG        44.4240    9.7720   71.9640 C.3   138  LEU138      0.0022
    203  CD1       43.7130   10.4110   70.7940 C.3   138  LEU138      0.0001
    204  CD2       44.9890   10.8530   72.8490 C.3   138  LEU138      0.0001
@<TRIPOS>BOND
     1   132   133    1
     2   133   134    1
     3   133   136    1
     4    39    40    1
     5   127   126    2
     6   134   135    2
     7    40    41    1
     8    40    43    1
     9    54    55    1
    10    45    43    1
    11   136   137    1
    12    42    41    2
    13    41    46   am
    14   126   125    1
    15    43    44    1
    16    55    56    1
    17    55    58    1
    18   138   137   ar
    19   138   140   ar
    20    56    57    2
    21   137   139   ar
    22    61    59    1
    23    46    47    1
    24    48    49    2
    25    48    47    1
    26    30    31    1
    27   125   124    1
    28   125   128    1
    29    22    23    1
    30   140   142   ar
    31    59    58    1
    32    59    60    1
    33   139   141   ar
    34    32    33    2
    35    32    31    1
    36    47    50    1
    37    28    27   ar
    38    23    24    1
    39    23    26    1
    40    31    34    1
    41   128   129    1
    42    25    24    2
    43   131   129    1
    44   142   141   ar
    45   143   144    1
    46    27    26    1
    47    27    29   ar
    48    50    51    1
    49   129   130    1
    50    34    35    1
    51   144   145    1
    52   144   147    1
    53    51    53    1
    54    51    52    1
    55   145   146    2
    56    35    36    1
    57    69    67    1
    58   147   148    1
    59    84    83    1
    60    85    83    1
    61    36    37   ar
    62    36    38   ar
    63    67    66    1
    64    68    66    1
    65   148   150   ar
    66   148   149   ar
    67    83    82    1
    68   181   179   ar
    69    66    63    1
    70   150   152   ar
    71    82    79    1
    72   149   151   ar
    73    73    72    2
    74    79    78    1
    75    79    80    1
    76   203   202    1
    77   179   178    1
    78   179   180   ar
    79   152   151   ar
    80   168   166    1
    81    77    75    1
    82   178   175    1
    83    75    74    1
    84    63    62    1
    85    63    64    1
    86   167   165    1
    87    72    71    1
    88    80    81    2
    89    64    70   am
    90    64    65    2
    91   202   201    1
    92   202   204    1
    93   165   166    1
    94   165   162    1
    95    70    71    1
    96    92    90    1
    97   177   176    2
    98    71    74    1
    99    20    21    1
   100    20    19    1
   101   175   174    1
   102   175   176    1
   103    74    76    1
   104   164   163    2
   105   201   198    1
   106    16    15    2
   107   172   171    2
   108   174   171   am
   109   171   170    1
   110   176   182   am
   111   194   193    1
   112   194   195    1
   113    18    17    1
   114    18    19    1
   115   163   162    1
   116   163   169   am
   117   197   198    1
   118   197   195   am
   119    17    14    1
   120   170   169    1
   121   170   173    1
   122    90    87    1
   123    90    91    1
   124   162   161    1
   125    86    87    1
   126    87    88    1
   127   193   184   am
   128    15    14    1
   129   198   199    1
   130   195   196    2
   131   182   183    1
   132    14    13    1
   133   184   185    2
   134   184   183    1
   135    91    93    1
   136   199   200    2
   137    94    88   am
   138    94    95    1
   139    88    89    2
   140   183   186    1
   141   102   100   ar
   142    98    95    1
   143    98    99    1
   144    11    10    2
   145    95    96    1
   146   186   187    1
   147   100    99    1
   148   100   101   ar
   149   189   187   ar
   150   189   191   ar
   151    10     9    1
   152   187   188   ar
   153    97    96    2
   154    96   103   am
   155   191   192   ar
   156     7     5    1
   157   188   190   ar
   158   159   158    1
   159   192   190   ar
   160     8     9    1
   161     9    12    1
   162   103   104    1
   163   153   154    1
   164     1     2    1
   165     5     6    1
   166     5     2    1
   167   158   157    1
   168   158   160    1
   169     2     3    1
   170   157   154    1
   171   156   155    2
   172   154   155    1
   173   104   105    1
   174   104   107    1
   175   106   105    2
   176   105   115   am
   177     3     4    2
   178   107   108    1
   179   115   116    1
   180   119   116    1
   181   116   117    1
   182   109   108   ar
   183   109   111   ar
   184   108   110   ar
   185   111   113   ar
   186   117   118    2
   187   110   112   ar
   188   123   122    2
   189   122   121    1
   190   113   112   ar
   191   113   114    1
   192   121   120    1
