@<TRIPOS>MOLECULE
tmp/2oodA00.pdb
 120 115 0 0 0
SMALL
GASTEIGER

@<TRIPOS>ATOM
      1  N        113.4850   26.6050    7.5270 N.3    78  HIS78      -0.1241
      2  CA       114.8620   26.5560    7.0530 C.3    78  HIS78       0.1621
      3  C        115.2330   27.9700    6.6190 C.2    78  HIS78       0.2264
      4  O        114.8680   28.4040    5.5280 O.2    78  HIS78      -0.2867
      5  CB       114.9820   25.6030    5.8580 C.3    78  HIS78       0.0745
      6  CG       114.9180   24.1500    6.2160 C.ar   78  HIS78       0.0817
      7  ND1      116.0290   23.4250    6.5830 N.ar   78  HIS78      -0.2268
      8  CD2      113.8830   23.2770    6.2190 C.ar   78  HIS78       0.1154
      9  CE1      115.6820   22.1670    6.7930 C.ar   78  HIS78       0.1986
     10  NE2      114.3850   22.0490    6.5790 N.ar   78  HIS78      -0.2212
     11  N        111.5470   14.8950   -2.1180 N.3    92  LEU92      -0.1245
     12  CA       112.5940   15.2490   -1.1670 C.3    92  LEU92       0.1561
     13  C        114.0440   15.2070   -1.6740 C.2    92  LEU92       0.2260
     14  O        114.6540   16.2510   -1.9040 O.2    92  LEU92      -0.2867
     15  CB       112.4770   14.3580    0.0730 C.3    92  LEU92       0.0270
     16  CG       113.3340   14.6240    1.3190 C.3    92  LEU92       0.0019
     17  CD1      113.3610   13.3660    2.1850 C.3    92  LEU92       0.0001
     18  CD2      114.7580   14.9740    0.9350 C.3    92  LEU92       0.0001
     19  N        115.3410   16.9800   -4.9660 N.3    95  TRP95      -0.1227
     20  CA       115.0720   18.3990   -4.7480 C.3    95  TRP95       0.1737
     21  C        116.1720   19.0580   -3.8990 C.2    95  TRP95       0.2595
     22  O        116.6000   20.1710   -4.2010 O.2    95  TRP95      -0.2718
     23  CB       113.6970   18.5350   -4.0830 C.3    95  TRP95       0.0564
     24  CG       113.3910   19.8490   -3.4370 C.ar   95  TRP95       0.0003
     25  CD1      112.9720   20.9910   -4.0520 C.ar   95  TRP95       0.0946
     26  CD2      113.3950   20.1260   -2.0320 C.ar   95  TRP95       0.0152
     27  NE1      112.7020   21.9610   -3.1130 N.ar   95  TRP95      -0.2442
     28  CE2      112.9540   21.4520   -1.8670 C.ar   95  TRP95       0.0810
     29  CE3      113.7240   19.3760   -0.8960 C.ar   95  TRP95       0.0012
     30  CZ2      112.8360   22.0460   -0.6060 C.ar   95  TRP95       0.0191
     31  CZ3      113.6070   19.9630    0.3590 C.ar   95  TRP95       0.0001
     32  CH2      113.1640   21.2860    0.4930 C.ar   95  TRP95       0.0015
     33  N        116.6320   18.3780   -2.8490 N.am   96  LEU96      -0.1980
     34  CA       117.6970   18.9250   -2.0060 C.3    96  LEU96       0.1596
     35  C        118.9120   19.1890   -2.8820 C.2    96  LEU96       0.2287
     36  O        119.5100   20.2610   -2.8370 O.2    96  LEU96      -0.2864
     37  CB       118.0970   17.9420   -0.8930 C.3    96  LEU96       0.0297
     38  CG       117.1860   17.7140    0.3200 C.3    96  LEU96       0.0022
     39  CD1      117.7330   16.5640    1.1570 C.3    96  LEU96       0.0001
     40  CD2      117.0970   18.9770    1.1570 C.3    96  LEU96       0.0001
     41  N        121.2220   17.6700   10.6790 N.3   202  ARG202     -0.1231
     42  CA       120.1810   17.8110    9.6730 C.3   202  ARG202      0.1694
     43  C        119.2400   16.6160    9.5650 C.2   202  ARG202      0.2592
     44  O        118.0350   16.7530    9.7880 O.2   202  ARG202     -0.2718
     45  CB       120.8010   18.1190    8.3200 C.3   202  ARG202      0.0321
     46  CG       119.7970   18.5810    7.3050 C.3   202  ARG202      0.0489
     47  CD       120.4240   19.6020    6.4140 C.3   202  ARG202      0.2205
     48  NE       119.4810   20.0980    5.4220 N.pl3 202  ARG202     -0.0865
     49  CZ       119.6980   21.1610    4.6590 C.cat 202  ARG202      0.5346
     50  NH1      120.8280   21.8470    4.7760 N.pl3 202  ARG202      0.1354
     51  NH2      118.7870   21.5350    3.7780 N.pl3 202  ARG202      0.1354
     52  N        119.7760   15.4510    9.2130 N.am  203  PHE203     -0.1976
     53  CA       118.9570   14.2500    9.1160 C.3   203  PHE203      0.1639
     54  C        119.8330   13.0170    8.9260 C.2   203  PHE203      0.2290
     55  O        120.8580   13.0670    8.2420 O.2   203  PHE203     -0.2864
     56  CB       117.9170   14.3960    7.9910 C.3   203  PHE203      0.0560
     57  CG       118.4960   14.3750    6.6090 C.ar  203  PHE203     -0.0200
     58  CD1      119.6120   15.1440    6.2850 C.ar  203  PHE203     -0.0042
     59  CD2      117.9030   13.6000    5.6130 C.ar  203  PHE203     -0.0042
     60  CE1      120.1370   15.1370    4.9860 C.ar  203  PHE203     -0.0003
     61  CE2      118.4250   13.5890    4.3020 C.ar  203  PHE203     -0.0003
     62  CZ       119.5400   14.3590    3.9960 C.ar  203  PHE203     -0.0000
     63  N        115.2400   15.8640   11.3330 N.3   230  HIS230     -0.1241
     64  CA       114.1700   15.3530   10.4740 C.3   230  HIS230      0.1621
     65  C        114.0560   13.8520   10.6550 C.2   230  HIS230      0.2264
     66  O        115.0480   13.1750   10.9180 O.2   230  HIS230     -0.2867
     67  CB       114.4540   15.6590    9.0120 C.3   230  HIS230      0.0745
     68  CG       114.5760   17.1170    8.7250 C.ar  230  HIS230      0.0817
     69  ND1      115.7880   17.7670    8.6900 N.ar  230  HIS230     -0.2268
     70  CD2      113.6360   18.0570    8.4770 C.ar  230  HIS230      0.1154
     71  CE1      115.5910   19.0460    8.4260 C.ar  230  HIS230      0.1986
     72  NE2      114.2930   19.2480    8.2910 N.ar  230  HIS230     -0.2212
     73  N        110.4790   11.3370    6.5940 N.3   233  GLU233     -0.1245
     74  CA       109.6900   12.2130    5.7370 C.3   233  GLU233      0.1567
     75  C        109.3530   11.6800    4.3460 C.2   233  GLU233      0.2260
     76  O        108.2710   11.9530    3.8230 O.2   233  GLU233     -0.2867
     77  CB       110.3880   13.5710    5.6000 C.3   233  GLU233      0.0388
     78  CG       109.8560   14.4420    4.4610 C.3   233  GLU233      0.1160
     79  CD       110.6280   15.7480    4.3020 C.2   233  GLU233      0.3649
     80  OE1      111.8550   15.7570    4.5560 O.co2 233  GLU233     -0.2457
     81  OE2      110.0130   16.7630    3.9110 O.co2 233  GLU233     -0.2457
     82  N        113.9010    8.3090    1.2220 N.3   237  GLU237     -0.1245
     83  CA       114.7580    8.7870    2.3010 C.3   237  GLU237      0.1567
     84  C        114.8260    7.7320    3.4070 C.2   237  GLU237      0.2260
     85  O        115.8850    7.4750    3.9650 O.2   237  GLU237     -0.2867
     86  CB       114.2040   10.1030    2.8740 C.3   237  GLU237      0.0388
     87  CG       115.0390   10.7080    4.0030 C.3   237  GLU237      0.1160
     88  CD       114.1900   11.3150    5.1210 C.2   237  GLU237      0.3649
     89  OE1      114.7740   11.8970    6.0660 O.co2 237  GLU237     -0.2457
     90  OE2      112.9430   11.2030    5.0610 O.co2 237  GLU237     -0.2457
     91  N        108.3240   16.1360   10.2670 N.3   269  HIS269     -0.1241
     92  CA       107.5890   15.2620    9.3540 C.3   269  HIS269      0.1621
     93  C        107.3880   13.8350    9.8620 C.2   269  HIS269      0.2264
     94  O        108.2110   12.9560    9.5960 O.2   269  HIS269     -0.2867
     95  CB       108.3140   15.1740    8.0100 C.3   269  HIS269      0.0745
     96  CG       108.6730   16.4970    7.4210 C.ar  269  HIS269      0.0817
     97  ND1      109.9580   16.9870    7.4330 N.ar  269  HIS269     -0.2268
     98  CD2      107.9270   17.4100    6.7580 C.ar  269  HIS269      0.1154
     99  CE1      109.9910   18.1420    6.7950 C.ar  269  HIS269      0.1986
    100  NE2      108.7730   18.4210    6.3740 N.ar  269  HIS269     -0.2212
    101  N        106.0460   18.3610   -1.5800 N.3   297  LEU297     -0.1245
    102  CA       107.0800   17.4240   -1.9990 C.3   297  LEU297      0.1561
    103  C        106.5450   16.0130   -2.2630 C.2   297  LEU297      0.2260
    104  O        107.2930   15.1250   -2.6630 O.2   297  LEU297     -0.2867
    105  CB       108.1890   17.3710   -0.9470 C.3   297  LEU297      0.0270
    106  CG       108.9390   18.6770   -0.6670 C.3   297  LEU297      0.0019
    107  CD1      109.9540   18.4470    0.4340 C.3   297  LEU297      0.0001
    108  CD2      109.6290   19.1600   -1.9220 C.3   297  LEU297      0.0001
    109  N        107.9290   24.7480    7.3340 N.3   320  ASP320     -0.1239
    110  CA       109.0030   24.0630    6.6430 C.3   320  ASP320      0.1674
    111  C        109.3390   24.7870    5.3470 C.2   320  ASP320      0.2266
    112  O        109.5060   24.1540    4.3000 O.2   320  ASP320     -0.2867
    113  CB       108.6170   22.6200    6.3370 C.3   320  ASP320      0.1410
    114  CG       109.8090   21.7890    5.9060 C.2   320  ASP320      0.3668
    115  OD1      110.8470   21.8950    6.5950 O.co2 320  ASP320     -0.2456
    116  OD2      109.7210   21.0350    4.9050 O.co2 320  ASP320     -0.2456
    117  N        110.6070   23.3790    1.6600 N.3   323  GLY323     -0.1225
    118  CA       109.7660   22.2470    1.3440 C.3   323  GLY323      0.1811
    119  C        108.3460   22.7420    1.2220 C.2   323  GLY323      0.2280
    120  O        107.6450   22.3930    0.2760 O.2   323  GLY323     -0.2866
@<TRIPOS>BOND
     1    19    20    1
     2    20    23    1
     3    20    21    1
     4    22    21    2
     5    23    24    1
     6    25    24   ar
     7    25    27   ar
     8    21    33   am
     9    24    26   ar
    10    27    28   ar
    11    35    36    2
    12    35    34    1
    13    33    34    1
    14   104   103    2
    15   103   102    1
    16    11    12    1
    17    26    28   ar
    18    26    29   ar
    19    34    37    1
    20   102   101    1
    21   102   105    1
    22   108   106    1
    23    14    13    2
    24    28    30   ar
    25    13    12    1
    26    12    15    1
    27   105   106    1
    28    29    31   ar
    29    37    38    1
    30   106   107    1
    31    30    32   ar
    32    15    16    1
    33   120   119    2
    34    38    39    1
    35    38    40    1
    36    31    32   ar
    37    18    16    1
    38    82    83    1
    39   119   118    1
    40    16    17    1
    41   118   117    1
    42    83    86    1
    43    83    84    1
    44    86    87    1
    45    84    85    2
    46    51    49    1
    47    76    75    2
    48    81    79   ar
    49    62    61   ar
    50    62    60   ar
    51    87    88    1
    52   112   111    2
    53    79    78    1
    54    79    80   ar
    55    61    59   ar
    56    75    74    1
    57    78    77    1
    58    49    50    1
    59    49    48    2
    60   116   114   ar
    61    60    58   ar
    62    90    88   ar
    63    88    89   ar
    64   111   110    1
    65    48    47    1
    66     4     3    2
    67    77    74    1
    68    59    57   ar
    69    74    73    1
    70     5     6    1
    71     5     2    1
    72   114   113    1
    73   114   115   ar
    74     6     8   ar
    75     6     7   ar
    76     8    10   ar
    77    58    57   ar
    78   113   110    1
    79   100    98   ar
    80   100    99   ar
    81    47    46    1
    82    10     9   ar
    83     7     9   ar
    84    57    56    1
    85     3     2    1
    86   110   109    1
    87    98    96   ar
    88    99    97   ar
    89     2     1    1
    90    46    45    1
    91    96    97   ar
    92    96    95    1
    93    56    53    1
    94    95    92    1
    95    55    54    2
    96    72    71   ar
    97    72    70   ar
    98    45    42    1
    99    71    69   ar
   100    70    68   ar
   101    69    68   ar
   102    68    67    1
   103    54    53    1
   104    67    64    1
   105    53    52    1
   106    52    43   am
   107    92    93    1
   108    92    91    1
   109    43    42    1
   110    43    44    2
   111    94    93    2
   112    42    41    1
   113    64    65    1
   114    64    63    1
   115    65    66    2
