@<TRIPOS>MOLECULE
tmp/2oohB00.pdb
 98 95 0 0 0
SMALL
GASTEIGER

@<TRIPOS>ATOM
      1  N        -54.0760   23.5850   28.1620 N.3     1  PRO1       -0.2102
      2  CA       -54.2890   24.3100   26.8860 C.3     1  PRO1        0.1504
      3  C        -55.6110   23.9180   26.2460 C.2     1  PRO1        0.2575
      4  O        -56.1160   22.8130   26.4630 O.2     1  PRO1       -0.2718
      5  CB       -53.1270   23.9410   25.9670 C.3     1  PRO1        0.0282
      6  CG       -52.0140   23.6890   27.0000 C.3     1  PRO1        0.0208
      7  CD       -52.7290   22.9850   28.1800 C.3     1  PRO1        0.0893
      8  N        -56.1810   24.8310   25.4700 N.am    2  MET2       -0.1980
      9  CA       -57.4210   24.5310   24.7790 C.3     2  MET2        0.1605
     10  C        -57.3640   25.0740   23.3640 C.2     2  MET2        0.2287
     11  O        -56.9570   26.2160   23.1250 O.2     2  MET2       -0.2864
     12  CB       -58.6410   25.0700   25.5390 C.3     2  MET2        0.0413
     13  CG       -58.6250   26.5380   25.8900 C.3     2  MET2        0.0598
     14  SD       -60.1820   26.9730   26.7500 S.3     2  MET2       -0.1393
     15  CE       -61.2670   27.0950   25.4090 C.3     2  MET2        0.0692
     16  N        -47.2640   20.0910   27.4500 N.3    32  LYS32      -0.1231
     17  CA       -48.2070   19.8570   28.5420 C.3    32  LYS32       0.1678
     18  C        -48.7960   18.4460   28.4360 C.2    32  LYS32       0.2434
     19  O        -48.9680   17.9220   27.3430 O.2    32  LYS32      -0.2733
     20  CB       -49.3380   20.8910   28.4910 C.3    32  LYS32       0.0284
     21  CG       -48.8830   22.3390   28.7020 C.3    32  LYS32       0.0035
     22  CD       -48.5360   22.6050   30.1640 C.3    32  LYS32       0.0206
     23  CE       -48.2700   24.0850   30.4220 C.3    32  LYS32       0.1093
     24  NZ       -47.1350   24.2850   31.3780 N.3    32  LYS32      -0.1314
     25  N        -49.1090   17.8150   29.5790 N.am   33  PRO33      -0.2729
     26  CA       -49.6800   16.4630   29.5860 C.3    33  PRO33       0.1401
     27  C        -50.9980   16.4300   28.8140 C.2    33  PRO33       0.2269
     28  O        -51.7780   17.3750   28.8710 O.2    33  PRO33      -0.2865
     29  CB       -49.8880   16.1830   31.0730 C.3    33  PRO33       0.0296
     30  CG       -48.8230   17.0120   31.7300 C.3    33  PRO33       0.0237
     31  CD       -48.9060   18.3020   30.9530 C.3    33  PRO33       0.0939
     32  N        -54.3940   17.6380   30.2840 N.3    36  TYR36      -0.1241
     33  CA       -54.9100   18.9780   30.4270 C.3    36  TYR36       0.1605
     34  C        -55.2210   19.6370   29.0800 C.2    36  TYR36       0.2264
     35  O        -55.6520   20.7910   29.0210 O.2    36  TYR36      -0.2867
     36  CB       -53.9710   19.7650   31.3330 C.3    36  TYR36       0.0534
     37  CG       -53.9370   19.1630   32.7420 C.ar   36  TYR36      -0.0201
     38  CD1      -55.0400   19.2710   33.6090 C.ar   36  TYR36      -0.0009
     39  CD2      -52.8190   18.4660   33.1970 C.ar   36  TYR36      -0.0009
     40  CE1      -55.0170   18.7030   34.9010 C.ar   36  TYR36       0.0417
     41  CE2      -52.7840   17.8980   34.4870 C.ar   36  TYR36       0.0417
     42  CZ       -53.8810   18.0190   35.3290 C.ar   36  TYR36       0.1957
     43  OH       -53.8060   17.4740   36.6000 O.3    36  TYR36      -0.2866
     44  N        -57.5390   20.3300   25.9730 N.3    38  ALA38      -0.1245
     45  CA       -58.9500   20.2920   25.6010 C.3    38  ALA38       0.1562
     46  C        -59.0460   20.7060   24.1330 C.2    38  ALA38       0.2260
     47  O        -58.3920   21.6670   23.7080 O.2    38  ALA38      -0.2867
     48  CB       -59.7650   21.2510   26.4730 C.3    38  ALA38       0.0290
     49  N        -55.4980   28.7030   23.5130 N.3    62  HIS62      -0.1226
     50  CA       -55.2890   29.3540   24.8040 C.3    62  HIS62       0.1752
     51  C        -54.3650   28.4600   25.6320 C.2    62  HIS62       0.2597
     52  O        -54.5300   27.2430   25.6460 O.2    62  HIS62      -0.2718
     53  CB       -56.5980   29.4990   25.5870 C.3    62  HIS62       0.0759
     54  CG       -57.6030   30.4110   24.9560 C.ar   62  HIS62       0.0818
     55  ND1      -58.3350   30.0590   23.8430 N.ar   62  HIS62      -0.2268
     56  CD2      -58.0420   31.6390   25.3210 C.ar   62  HIS62       0.1154
     57  CE1      -59.1840   31.0280   23.5500 C.ar   62  HIS62       0.1986
     58  NE2      -59.0260   31.9990   24.4320 N.ar   62  HIS62      -0.2212
     59  N        -53.4080   29.0650   26.3250 N.am   63  SER63      -0.1938
     60  CA       -52.4840   28.3060   27.1690 C.3    63  SER63       0.2055
     61  C        -51.8880   29.2230   28.2260 C.2    63  SER63       0.2642
     62  O        -51.7020   30.4180   27.9860 O.2    63  SER63      -0.2714
     63  CB       -51.3560   27.7010   26.3190 C.3    63  SER63       0.2130
     64  OG       -50.4420   26.9620   27.1220 O.3    63  SER63      -0.2179
     65  N        -51.6170   28.6710   29.4060 N.am   64  ILE64      -0.1977
     66  CA       -50.9960   29.4450   30.4770 C.3    64  ILE64       0.1596
     67  C        -49.5110   29.2800   30.1890 C.2    64  ILE64       0.2287
     68  O        -48.9060   28.2700   30.5580 O.2    64  ILE64      -0.2864
     69  CB       -51.3450   28.8630   31.8600 C.3    64  ILE64       0.0276
     70  CG1      -52.8550   28.9650   32.0850 C.3    64  ILE64       0.0022
     71  CG2      -50.5740   29.6030   32.9620 C.3    64  ILE64       0.0022
     72  CD1      -53.3550   28.2590   33.3410 C.3    64  ILE64       0.0001
     73  N        -52.7380   33.0000   28.5900 N.3   101  MET101     -0.1245
     74  CA       -53.5800   33.2340   29.7530 C.3   101  MET101      0.1570
     75  C        -52.8230   33.3280   31.0720 C.2   101  MET101      0.2261
     76  O        -51.9200   32.5380   31.3320 O.2   101  MET101     -0.2867
     77  CB       -54.6200   32.1100   29.8550 C.3   101  MET101      0.0387
     78  CG       -55.5120   31.9510   28.6310 C.3   101  MET101      0.0595
     79  SD       -56.4980   33.4360   28.3010 S.3   101  MET101     -0.1393
     80  CE       -57.5260   33.4790   29.7570 C.3   101  MET101      0.0692
     81  N        -57.7650   31.5930   34.8040 N.3   106  VAL106     -0.1245
     82  CA       -58.2370   30.3210   34.2800 C.3   106  VAL106      0.1561
     83  C        -58.8660   29.5060   35.4000 C.2   106  VAL106      0.2260
     84  O        -58.1910   29.1340   36.3660 O.2   106  VAL106     -0.2867
     85  CB       -57.1040   29.4780   33.6490 C.3   106  VAL106      0.0252
     86  CG1      -57.6810   28.1490   33.1490 C.3   106  VAL106      0.0019
     87  CG2      -56.4580   30.2320   32.4870 C.3   106  VAL106      0.0019
     88  N        -55.9830   28.3490   38.6410 N.3   113  PHE113     -0.1241
     89  CA       -54.5590   27.9240   38.7690 C.3   113  PHE113      0.1605
     90  C        -53.6690   28.9790   39.4790 C.2   113  PHE113      0.2264
     91  O        -54.1480   29.9760   39.8170 O.2   113  PHE113     -0.2867
     92  CB       -54.0540   27.5810   37.3360 C.3   113  PHE113      0.0534
     93  CG       -54.7410   26.3920   36.6930 C.ar  113  PHE113     -0.0203
     94  CD1      -55.6690   26.4910   35.6380 C.ar  113  PHE113     -0.0042
     95  CD2      -54.4470   25.1160   37.1450 C.ar  113  PHE113     -0.0042
     96  CE1      -56.2320   25.3510   35.0800 C.ar  113  PHE113     -0.0003
     97  CE2      -55.0020   23.9650   36.5970 C.ar  113  PHE113     -0.0003
     98  CZ       -55.8860   24.0830   35.5500 C.ar  113  PHE113     -0.0000
@<TRIPOS>BOND
     1    11    10    2
     2    10     9    1
     3    49    50    1
     4    57    55   ar
     5    57    58   ar
     6    47    46    2
     7    55    54   ar
     8    46    45    1
     9    58    56   ar
    10     9     8    1
    11     9    12    1
    12    50    53    1
    13    50    51    1
    14    54    56   ar
    15    54    53    1
    16    15    14    1
    17     8     3   am
    18    12    13    1
    19    45    44    1
    20    45    48    1
    21    51    52    2
    22    51    59   am
    23    13    14    1
    24     5     2    1
    25     5     6    1
    26     3     4    2
    27     3     2    1
    28    63    64    1
    29    63    60    1
    30    59    60    1
    31     2     1    1
    32     6     7    1
    33    60    61    1
    34    19    18    2
    35    16    17    1
    36    62    61    2
    37     1     7    1
    38    61    65   am
    39    79    78    1
    40    79    80    1
    41    18    17    1
    42    18    25   am
    43    20    17    1
    44    20    21    1
    45    73    74    1
    46    78    77    1
    47    21    22    1
    48    27    28    2
    49    27    26    1
    50    35    34    2
    51    34    33    1
    52    65    66    1
    53    25    26    1
    54    25    31    1
    55    26    29    1
    56    74    77    1
    57    74    75    1
    58    22    23    1
    59    67    66    1
    60    67    68    2
    61    32    33    1
    62    23    24    1
    63    33    36    1
    64    66    69    1
    65    31    30    1
    66    75    76    2
    67    29    30    1
    68    36    37    1
    69    69    70    1
    70    69    71    1
    71    70    72    1
    72    87    85    1
    73    37    39   ar
    74    37    38   ar
    75    86    85    1
    76    39    41   ar
    77    38    40   ar
    78    85    82    1
    79    82    81    1
    80    82    83    1
    81    41    42   ar
    82    40    42   ar
    83    96    98   ar
    84    96    94   ar
    85    42    43    1
    86    83    84    2
    87    98    97   ar
    88    94    93   ar
    89    97    95   ar
    90    93    95   ar
    91    93    92    1
    92    92    89    1
    93    88    89    1
    94    89    90    1
    95    90    91    2
