@<TRIPOS>MOLECULE
tmp/2oorB00.pdb
 154 146 0 0 0
SMALL
GASTEIGER

@<TRIPOS>ATOM
      1  N        -28.6120  -44.4080   22.8210 N.3   127  ARG127     -0.1245
      2  CA       -28.0010  -43.6020   21.7700 C.3   127  ARG127      0.1563
      3  C        -28.7470  -43.7900   20.4500 C.2   127  ARG127      0.2260
      4  O        -28.2570  -44.4490   19.5360 O.2   127  ARG127     -0.2867
      5  CB       -26.5220  -43.9730   21.6250 C.3   127  ARG127      0.0307
      6  CG       -25.7430  -43.8630   22.9250 C.3   127  ARG127      0.0489
      7  CD       -24.2390  -43.8760   22.6960 C.3   127  ARG127      0.2205
      8  NE       -23.5010  -43.7130   23.9520 N.pl3 127  ARG127     -0.0865
      9  CZ       -23.3510  -42.5680   24.6300 C.cat 127  ARG127      0.5346
     10  NH1      -23.8850  -41.4180   24.1990 N.pl3 127  ARG127      0.1354
     11  NH2      -22.6540  -42.5680   25.7670 N.pl3 127  ARG127      0.1354
     12  N        -25.5650  -36.2210   28.8530 N.3   137  LEU137     -0.1231
     13  CA       -24.1260  -36.3900   28.6440 C.3   137  LEU137      0.1693
     14  C        -23.6070  -35.4190   27.5900 C.2   137  LEU137      0.2592
     15  O        -22.5940  -34.7700   27.8050 O.2   137  LEU137     -0.2718
     16  CB       -23.7860  -37.8450   28.2770 C.3   137  LEU137      0.0284
     17  CG       -23.4460  -38.8050   29.4300 C.3   137  LEU137      0.0019
     18  CD1      -24.2870  -38.6110   30.6890 C.3   137  LEU137      0.0001
     19  CD2      -23.5480  -40.2460   28.9440 C.3   137  LEU137      0.0001
     20  N        -24.3260  -35.3020   26.4770 N.am  138  SER138     -0.1952
     21  CA       -23.9740  -34.3680   25.4090 C.3   138  SER138      0.1924
     22  C        -24.1390  -32.8980   25.7890 C.2   138  SER138      0.2314
     23  O        -23.2390  -32.1040   25.5440 O.2   138  SER138     -0.2863
     24  CB       -24.8020  -34.6590   24.1570 C.3   138  SER138      0.2116
     25  OG       -24.4030  -35.8960   23.5910 O.3   138  SER138     -0.2180
     26  N        -21.4160  -32.1170   28.6560 N.3   141  SER141     -0.1217
     27  CA       -20.0460  -32.2400   28.1000 C.3   141  SER141      0.1889
     28  C        -19.6750  -31.1310   27.1250 C.2   141  SER141      0.2288
     29  O        -18.5130  -30.7250   27.0520 O.2   141  SER141     -0.2866
     30  CB       -19.8620  -33.5500   27.3280 C.3   141  SER141      0.2089
     31  OG       -19.9320  -34.6750   28.1740 O.3   141  SER141     -0.2183
     32  N         -8.5100  -36.4660   22.8250 N.3   179  GLY179     -0.1225
     33  CA        -9.8880  -36.9350   22.9020 C.3   179  GLY179      0.1811
     34  C        -10.8010  -35.9260   22.2310 C.2   179  GLY179      0.2280
     35  O        -10.9180  -34.7900   22.6900 O.2   179  GLY179     -0.2866
     36  N        -14.3160  -36.1700   21.4450 N.3   181  GLY181     -0.1210
     37  CA       -15.7430  -36.4130   21.5640 C.3   181  GLY181      0.1956
     38  C        -16.4590  -35.0730   21.6280 C.2   181  GLY181      0.2612
     39  O        -16.0020  -34.0990   21.0290 O.2   181  GLY181     -0.2717
     40  N        -17.5580  -35.0140   22.3810 N.am  182  VAL182     -0.1965
     41  CA       -18.4120  -33.8150   22.4350 C.3   182  VAL182      0.1727
     42  C        -17.6500  -32.6280   23.0460 C.2   182  VAL182      0.2616
     43  O        -17.6260  -31.5340   22.4740 O.2   182  VAL182     -0.2715
     44  CB       -19.7300  -34.0540   23.2450 C.3   182  VAL182      0.0290
     45  CG1      -20.6340  -32.8160   23.2050 C.3   182  VAL182      0.0023
     46  CG2      -20.5100  -35.2680   22.7140 C.3   182  VAL182      0.0023
     47  N        -17.0360  -32.8610   24.2040 N.am  183  ALA183     -0.1977
     48  CA       -16.2290  -31.8530   24.8820 C.3   183  ALA183      0.1597
     49  C        -15.0500  -31.3930   24.0260 C.2   183  ALA183      0.2287
     50  O        -14.8540  -30.1910   23.8270 O.2   183  ALA183     -0.2864
     51  CB       -15.7310  -32.3930   26.2170 C.3   183  ALA183      0.0319
     52  N         -5.8470  -35.1720   18.7020 N.3   201  THR201     -0.1203
     53  CA        -5.6240  -36.6100   18.5220 C.3   201  THR201      0.1994
     54  C         -6.7350  -37.4380   19.1730 C.2   201  THR201      0.2618
     55  O         -7.3270  -37.0240   20.1710 O.2   201  THR201     -0.2717
     56  CB        -4.2400  -37.0590   19.0810 C.3   201  THR201      0.1784
     57  OG1       -4.0330  -38.4520   18.8050 O.3   201  THR201     -0.2211
     58  CG2       -4.1230  -36.8070   20.5930 C.3   201  THR201      0.0376
     59  N         -6.9910  -38.6130   18.6000 N.am  202  ASP202     -0.1959
     60  CA        -7.9960  -39.5510   19.1040 C.3   202  ASP202      0.1840
     61  C         -7.7020  -40.9620   18.5690 C.2   202  ASP202      0.2622
     62  O         -7.1300  -41.1160   17.4860 O.2   202  ASP202     -0.2715
     63  CB        -9.3880  -39.0960   18.6610 C.3   202  ASP202      0.1450
     64  CG       -10.5100  -39.6930   19.4910 C.2   202  ASP202      0.3671
     65  OD1      -10.6290  -40.9320   19.5600 O.co2 202  ASP202     -0.2456
     66  OD2      -11.3010  -38.9110   20.0610 O.co2 202  ASP202     -0.2456
     67  N         -8.0880  -41.9760   19.3410 N.am  203  VAL203     -0.1963
     68  CA        -7.9650  -43.3820   18.9180 C.3   203  VAL203      0.1727
     69  C         -8.8970  -43.7690   17.7600 C.2   203  VAL203      0.2616
     70  O         -8.5200  -44.5780   16.9120 O.2   203  VAL203     -0.2715
     71  CB        -8.1670  -44.3930   20.0960 C.3   203  VAL203      0.0290
     72  CG1       -7.0230  -44.2820   21.0910 C.3   203  VAL203      0.0023
     73  CG2       -9.5420  -44.2310   20.7980 C.3   203  VAL203      0.0023
     74  N        -10.1000  -43.1970   17.7260 N.am  204  ARG204     -0.1977
     75  CA       -11.0920  -43.5400   16.6990 C.3   204  ARG204      0.1597
     76  C        -10.7890  -42.8830   15.3480 C.2   204  ARG204      0.2287
     77  O        -10.2880  -41.7610   15.2920 O.2   204  ARG204     -0.2864
     78  CB       -12.4990  -43.1760   17.1720 C.3   204  ARG204      0.0334
     79  CG       -12.9320  -43.9350   18.4260 C.3   204  ARG204      0.0492
     80  CD       -14.3920  -43.6910   18.8130 C.3   204  ARG204      0.2205
     81  NE       -14.7400  -42.2660   18.9080 N.pl3 204  ARG204     -0.0865
     82  CZ       -15.2760  -41.5150   17.9360 C.cat 204  ARG204      0.5346
     83  NH1      -15.5550  -42.0090   16.7250 N.pl3 204  ARG204      0.1354
     84  NH2      -15.5320  -40.2310   18.1790 N.pl3 204  ARG204      0.1354
     85  N         -1.6660  -48.9020   23.1060 N.3   226  PHE226     -0.1241
     86  CA        -2.0770  -47.5430   22.7260 C.3   226  PHE226      0.1605
     87  C         -1.1200  -46.5040   23.3080 C.2   226  PHE226      0.2264
     88  O         -0.5930  -45.6610   22.5820 O.2   226  PHE226     -0.2867
     89  CB        -3.4950  -47.2100   23.2340 C.3   226  PHE226      0.0534
     90  CG        -4.6130  -47.6420   22.3140 C.ar  226  PHE226     -0.0203
     91  CD1       -4.6850  -47.1680   21.0070 C.ar  226  PHE226     -0.0042
     92  CD2       -5.6270  -48.4790   22.7740 C.ar  226  PHE226     -0.0042
     93  CE1       -5.7250  -47.5500   20.1650 C.ar  226  PHE226     -0.0003
     94  CE2       -6.6720  -48.8620   21.9380 C.ar  226  PHE226     -0.0003
     95  CZ        -6.7200  -48.3970   20.6320 C.ar  226  PHE226     -0.0000
     96  N          1.4910  -44.4040   20.7100 N.3   230  GLN230     -0.1245
     97  CA         0.8990  -43.1180   20.2820 C.3   230  GLN230      0.1566
     98  C          1.8410  -41.9230   20.4640 C.2   230  GLN230      0.2260
     99  O          2.0570  -41.1550   19.5220 O.2   230  GLN230     -0.2867
    100  CB        -0.4250  -42.8430   21.0210 C.3   230  GLN230      0.0367
    101  CG        -1.2730  -41.6910   20.4360 C.3   230  GLN230      0.0905
    102  CD        -2.3910  -41.2310   21.3680 C.2   230  GLN230      0.2608
    103  OE1       -3.5730  -41.3260   21.0340 O.2   230  GLN230     -0.2717
    104  NE2       -2.0180  -40.7240   22.5390 N.am  230  GLN230     -0.0878
    105  N         -9.5620  -34.8460   27.4000 N.3   247  THR247     -0.1203
    106  CA       -11.0030  -35.0890   27.5590 C.3   247  THR247      0.1994
    107  C        -11.4130  -36.5670   27.4270 C.2   247  THR247      0.2618
    108  O        -12.6010  -36.8530   27.2810 O.2   247  THR247     -0.2717
    109  CB       -11.8160  -34.3000   26.4860 C.3   247  THR247      0.1784
    110  OG1      -11.7990  -35.0070   25.2400 O.3   247  THR247     -0.2211
    111  CG2      -11.2570  -32.8900   26.2710 C.3   247  THR247      0.0376
    112  N        -10.4560  -37.4960   27.4960 N.am  248  ALA248     -0.1965
    113  CA       -10.7050  -38.9040   27.1460 C.3   248  ALA248      0.1728
    114  C        -11.2190  -39.7310   28.3250 C.2   248  ALA248      0.2616
    115  O        -10.5740  -39.7820   29.3670 O.2   248  ALA248     -0.2715
    116  CB        -9.4400  -39.5320   26.5940 C.3   248  ALA248      0.0334
    117  N        -12.3780  -40.3680   28.1480 N.am  249  LEU249     -0.1963
    118  CA       -12.9290  -41.3120   29.1250 C.3   249  LEU249      0.1728
    119  C        -13.1460  -42.6790   28.4750 C.2   249  LEU249      0.2616
    120  O        -13.4270  -42.7680   27.2730 O.2   249  LEU249     -0.2715
    121  CB       -14.2680  -40.8230   29.6820 C.3   249  LEU249      0.0311
    122  CG       -14.4320  -39.3590   30.0900 C.3   249  LEU249      0.0022
    123  CD1      -15.8820  -39.0890   30.4350 C.3   249  LEU249      0.0001
    124  CD2      -13.5350  -39.0160   31.2680 C.3   249  LEU249      0.0001
    125  N        -12.9980  -43.7310   29.2790 N.am  250  ILE250     -0.1964
    126  CA       -13.3670  -45.0940   28.9000 C.3   250  ILE250      0.1712
    127  C        -14.5480  -45.4410   29.8130 C.2   250  ILE250      0.2458
    128  O        -14.4110  -45.3650   31.0360 O.2   250  ILE250     -0.2730
    129  CB       -12.1880  -46.0830   29.0930 C.3   250  ILE250      0.0289
    130  CG1      -11.0190  -45.7020   28.1700 C.3   250  ILE250      0.0022
    131  CG2      -12.6260  -47.5300   28.7940 C.3   250  ILE250      0.0023
    132  CD1       -9.6740  -46.3080   28.5550 C.3   250  ILE250      0.0001
    133  N        -15.7120  -45.8060   29.2320 N.am  251  PRO251     -0.2727
    134  CA       -16.9370  -45.8750   30.0440 C.3   251  PRO251      0.1402
    135  C        -16.9250  -47.0040   31.0860 C.2   251  PRO251      0.2269
    136  O        -16.8310  -48.1810   30.7210 O.2   251  PRO251     -0.2865
    137  CB       -18.0400  -46.0970   29.0000 C.3   251  PRO251      0.0296
    138  CG       -17.3530  -46.7410   27.8470 C.3   251  PRO251      0.0237
    139  CD       -15.9600  -46.1870   27.8280 C.3   251  PRO251      0.0939
    140  N         -7.7440  -43.1260   30.6590 N.3   256  PRO256     -0.2116
    141  CA        -6.4390  -43.5000   30.1170 C.3   256  PRO256      0.1372
    142  C         -5.4000  -42.3970   30.2890 C.2   256  PRO256      0.2244
    143  O         -5.6900  -41.2440   29.9980 O.2   256  PRO256     -0.2868
    144  CB        -6.7300  -43.7130   28.6300 C.3   256  PRO256      0.0268
    145  CG        -7.8800  -42.8250   28.3450 C.3   256  PRO256      0.0207
    146  CD        -8.7130  -42.8270   29.5880 C.3   256  PRO256      0.0892
    147  N         -2.8510  -40.1320   29.1460 N.3   258  LEU258     -0.1245
    148  CA        -2.4070  -39.5950   27.8480 C.3   258  LEU258      0.1561
    149  C         -1.2100  -38.6510   27.9350 C.2   258  LEU258      0.2260
    150  O         -0.5310  -38.4300   26.9310 O.2   258  LEU258     -0.2867
    151  CB        -3.5720  -38.8970   27.1390 C.3   258  LEU258      0.0270
    152  CG        -4.8540  -39.7220   26.9750 C.3   258  LEU258      0.0019
    153  CD1       -5.8700  -38.9460   26.1780 C.3   258  LEU258      0.0001
    154  CD2       -4.6150  -41.0780   26.3160 C.3   258  LEU258      0.0001
@<TRIPOS>BOND
     1    77    76    2
     2    76    75    1
     3    75    78    1
     4    75    74    1
     5    83    82    1
     6    70    69    2
     7    78    79    1
     8    62    61    2
     9    74    69   am
    10    69    68    1
    11    82    84    1
    12    82    81    2
    13    79    80    1
    14    53    52    1
    15    53    56    1
    16    53    54    1
    17    61    60    1
    18    61    67   am
    19    59    60    1
    20    59    54   am
    21    63    60    1
    22    63    64    1
    23    57    56    1
    24    80    81    1
    25    68    67    1
    26    68    71    1
    27    56    58    1
    28    54    55    2
    29    64    65   ar
    30    64    66   ar
    31    99    98    2
    32     4     3    2
    33    71    73    1
    34    71    72    1
    35    93    95   ar
    36    93    91   ar
    37    97    98    1
    38    97    96    1
    39    97   100    1
    40   101   100    1
    41   101   102    1
    42     3     2    1
    43    95    94   ar
    44    91    90   ar
    45    39    38    2
    46   103   102    2
    47   102   104   am
    48    36    37    1
    49    37    38    1
    50     5     2    1
    51     5     6    1
    52    38    40   am
    53     2     1    1
    54    94    92   ar
    55    34    35    2
    56    34    33    1
    57    90    92   ar
    58    90    89    1
    59    40    41    1
    60    41    42    1
    61    41    44    1
    62    43    42    2
    63    88    87    2
    64     7     6    1
    65     7     8    1
    66    46    44    1
    67    86    85    1
    68    86    89    1
    69    86    87    1
    70    32    33    1
    71    42    47   am
    72    45    44    1
    73    25    24    1
    74    50    49    2
    75     8     9    2
    76    49    48    1
    77    24    21    1
    78    10     9    1
    79    47    48    1
    80     9    11    1
    81    48    51    1
    82   110   109    1
    83    21    22    1
    84    21    20    1
    85    23    22    2
    86   153   152    1
    87   111   109    1
    88   154   152    1
    89    20    14   am
    90   109   106    1
    91   116   113    1
    92   150   149    2
    93   152   151    1
    94    29    28    2
    95    28    27    1
    96   151   148    1
    97   113   112    1
    98   113   114    1
    99   120   119    2
   100   108   107    2
   101    30    27    1
   102    30    31    1
   103   105   106    1
   104   107   112   am
   105   107   106    1
   106    14    15    2
   107    14    13    1
   108   139   138    1
   109   139   133    1
   110   138   137    1
   111   148   149    1
   112   148   147    1
   113    27    26    1
   114   117   114   am
   115   117   118    1
   116   130   132    1
   117   130   129    1
   118    16    13    1
   119    16    17    1
   120   114   115    2
   121   145   144    1
   122   145   146    1
   123   119   118    1
   124   119   125   am
   125   144   141    1
   126    13    12    1
   127   131   129    1
   128   126   129    1
   129   126   125    1
   130   126   127    1
   131    19    17    1
   132   137   134    1
   133   118   121    1
   134   133   127   am
   135   133   134    1
   136    17    18    1
   137   146   140    1
   138   121   122    1
   139   127   128    2
   140   143   142    2
   141   134   135    1
   142   122   123    1
   143   122   124    1
   144   141   142    1
   145   141   140    1
   146   136   135    2
