@<TRIPOS>MOLECULE
tmp/2oosA01.pdb
 165 158 0 0 0
SMALL
GASTEIGER

@<TRIPOS>ATOM
      1  N         44.0560   83.7280   37.7240 N.3   119  SER119     -0.1202
      2  CA        44.6250   85.0290   38.1170 C.3   119  SER119      0.2020
      3  C         46.1050   85.0340   37.8200 C.2   119  SER119      0.2619
      4  O         46.9120   85.2950   38.7030 O.2   119  SER119     -0.2717
      5  CB        44.4140   85.3120   39.6250 C.3   119  SER119      0.2103
      6  OG        44.8000   86.6650   39.9160 O.3   119  SER119     -0.2182
      7  N         46.4770   84.7200   36.5980 N.am  120  LEU120     -0.1965
      8  CA        47.8750   84.4690   36.3110 C.3   120  LEU120      0.1728
      9  C         48.1930   84.8730   34.8900 C.2   120  LEU120      0.2616
     10  O         47.3330   84.8370   34.0210 O.2   120  LEU120     -0.2715
     11  CB        48.2270   82.9930   36.5200 C.3   120  LEU120      0.0311
     12  CG        47.5690   81.9560   35.6140 C.3   120  LEU120      0.0022
     13  CD1       48.4950   81.6540   34.4330 C.3   120  LEU120      0.0001
     14  CD2       47.2420   80.6810   36.3810 C.3   120  LEU120      0.0001
     15  N         49.4460   85.2170   34.6770 N.am  121  ALA121     -0.1963
     16  CA        49.9770   85.5870   33.3740 C.3   121  ALA121      0.1728
     17  C         51.4780   85.4040   33.4180 C.2   121  ALA121      0.2616
     18  O         52.0770   85.4960   34.4870 O.2   121  ALA121     -0.2715
     19  CB        49.6660   87.0460   33.0520 C.3   121  ALA121      0.0334
     20  N         52.0720   85.0950   32.2650 N.am  122  ASN122     -0.1958
     21  CA        53.5140   85.1860   32.0760 C.3   122  ASN122      0.1819
     22  C         53.7930   85.3480   30.5980 C.2   122  ASN122      0.2621
     23  O         52.9740   85.0010   29.7710 O.2   122  ASN122     -0.2715
     24  CB        54.2260   83.9310   32.6290 C.3   122  ASN122      0.1195
     25  CG        55.5780   84.2490   33.2820 C.2   122  ASN122      0.2630
     26  OD1       55.9990   83.5140   34.1880 O.2   122  ASN122     -0.2716
     27  ND2       56.2480   85.3400   32.8620 N.am  122  ASN122     -0.0877
     28  N         54.9550   85.8990   30.2810 N.am  123  ALA123     -0.1977
     29  CA        55.3860   86.2240   28.9170 C.3   123  ALA123      0.1597
     30  C         56.9000   86.4380   29.0880 C.2   123  ALA123      0.2287
     31  O         57.3220   87.4240   29.7080 O.2   123  ALA123     -0.2864
     32  CB        54.7250   87.5170   28.4660 C.3   123  ALA123      0.0319
     33  N         58.2180   89.9410   27.9060 N.3   126  VAL126     -0.1245
     34  CA        57.3140   91.0590   28.1900 C.3   126  VAL126      0.1561
     35  C         57.9680   92.4370   28.0360 C.2   126  VAL126      0.2260
     36  O         57.2980   93.4250   27.7890 O.2   126  VAL126     -0.2867
     37  CB        56.6280   90.9740   29.6290 C.3   126  VAL126      0.0252
     38  CG1       57.6730   91.1130   30.7600 C.3   126  VAL126      0.0019
     39  CG2       55.5250   92.0460   29.7760 C.3   126  VAL126      0.0019
     40  N         43.4080   92.9380   30.9210 N.3   171  TYR171     -0.1241
     41  CA        43.8500   94.3160   30.9220 C.3   171  TYR171      0.1605
     42  C         43.5320   94.9450   29.5590 C.2   171  TYR171      0.2264
     43  O         43.5930   94.2940   28.5330 O.2   171  TYR171     -0.2867
     44  CB        45.3610   94.4120   31.2830 C.3   171  TYR171      0.0534
     45  CG        45.8890   95.8640   31.3560 C.ar  171  TYR171     -0.0201
     46  CD1       45.3330   96.7910   32.2540 C.ar  171  TYR171     -0.0009
     47  CD2       46.9620   96.2740   30.5360 C.ar  171  TYR171     -0.0009
     48  CE1       45.7760   98.1420   32.2910 C.ar  171  TYR171      0.0417
     49  CE2       47.4560   97.5880   30.5990 C.ar  171  TYR171      0.0417
     50  CZ        46.8440   98.5150   31.4710 C.ar  171  TYR171      0.1957
     51  OH        47.3040   99.8020   31.5000 O.3   171  TYR171     -0.2866
     52  N         48.8140  100.2170   24.7830 N.3   178  VAL178     -0.1231
     53  CA        49.6900  100.6180   25.8710 C.3   178  VAL178      0.1678
     54  C         51.1290  100.2130   25.5390 C.2   178  VAL178      0.2434
     55  O         51.5060   99.0370   25.5820 O.2   178  VAL178     -0.2733
     56  CB        49.1290  100.3870   27.3690 C.3   178  VAL178      0.0265
     57  CG1       47.7970   99.7190   27.4590 C.3   178  VAL178      0.0020
     58  CG2       50.1780   99.9990   28.4340 C.3   178  VAL178      0.0020
     59  N         51.9100  101.2200   25.1080 N.am  179  PRO179     -0.2718
     60  CA        53.3200  100.9980   24.8200 C.3   179  PRO179      0.1535
     61  C         53.9560  100.5280   26.1400 C.2   179  PRO179      0.2599
     62  O         53.6270  101.0420   27.2170 O.2   179  PRO179     -0.2715
     63  CB        53.8210  102.3950   24.4220 C.3   179  PRO179      0.0310
     64  CG        52.5790  103.0750   23.8950 C.3   179  PRO179      0.0237
     65  CD        51.5050  102.6170   24.8580 C.3   179  PRO179      0.0939
     66  N         54.7970   99.5250   26.0540 N.am  180  GLY180     -0.1941
     67  CA        55.4100   98.9550   27.2630 C.3   180  GLY180      0.2014
     68  C         54.7910   97.6290   27.6990 C.2   180  GLY180      0.2638
     69  O         55.4080   96.8880   28.4580 O.2   180  GLY180     -0.2714
     70  N         53.5480   97.3540   27.2810 N.am  181  TYR181     -0.1973
     71  CA        52.9030   96.0930   27.6290 C.3   181  TYR181      0.1639
     72  C         53.2800   95.1200   26.5260 C.2   181  TYR181      0.2290
     73  O         52.4870   94.8690   25.6200 O.2   181  TYR181     -0.2864
     74  CB        51.4000   96.2810   27.7150 C.3   181  TYR181      0.0560
     75  CG        50.6380   95.2220   28.4860 C.ar  181  TYR181     -0.0198
     76  CD1       50.8050   95.0610   29.8680 C.ar  181  TYR181     -0.0009
     77  CD2       49.7040   94.4160   27.8280 C.ar  181  TYR181     -0.0009
     78  CE1       50.0700   94.0870   30.5710 C.ar  181  TYR181      0.0417
     79  CE2       48.9680   93.4710   28.5150 C.ar  181  TYR181      0.0417
     80  CZ        49.1440   93.3070   29.8770 C.ar  181  TYR181      0.1957
     81  OH        48.3770   92.3500   30.5220 O.3   181  TYR181     -0.2866
     82  N         51.8880   89.9960   25.4850 N.3   185  MET185     -0.1245
     83  CA        50.8920   90.1890   26.5570 C.3   185  MET185      0.1570
     84  C         49.5850   90.8520   26.1200 C.2   185  MET185      0.2261
     85  O         48.5240   90.4480   26.5700 O.2   185  MET185     -0.2867
     86  CB        51.4490   90.9400   27.7890 C.3   185  MET185      0.0387
     87  CG        52.2430   90.0350   28.7660 C.3   185  MET185      0.0595
     88  SD        51.3910   88.5140   29.2510 S.3   185  MET185     -0.1393
     89  CE        49.8890   89.0820   29.9870 C.3   185  MET185      0.0692
     90  N         45.9420   88.8960   26.0610 N.3   189  LYS189     -0.1245
     91  CA        44.7480   89.4190   26.7390 C.3   189  LYS189      0.1561
     92  C         43.5800   89.5330   25.7380 C.2   189  LYS189      0.2260
     93  O         42.4340   89.3190   26.0960 O.2   189  LYS189     -0.2867
     94  CB        45.0220   90.8170   27.3980 C.3   189  LYS189      0.0271
     95  CG        45.9710   90.7270   28.6000 C.3   189  LYS189      0.0035
     96  CD        45.6180   89.5980   29.6080 C.3   189  LYS189      0.0206
     97  CE        46.2510   89.8550   31.0560 C.3   189  LYS189      0.1093
     98  NZ        45.8770   88.6400   31.9530 N.3   189  LYS189     -0.1314
     99  N         42.2060   97.7530   36.5910 N.3   217  GLY217     -0.1210
    100  CA        43.1200   98.8590   36.5000 C.3   217  GLY217      0.1940
    101  C         44.4130   98.4410   37.1970 C.2   217  GLY217      0.2454
    102  O         44.5330   97.2880   37.6590 O.2   217  GLY217     -0.2732
    103  N         45.3750   99.3700   37.2860 N.am  218  PRO218     -0.2717
    104  CA        46.7360   99.0160   37.7050 C.3   218  PRO218      0.1535
    105  C         46.8610   98.8270   39.2170 C.2   218  PRO218      0.2598
    106  O         46.2140   99.5460   39.9990 O.2   218  PRO218     -0.2715
    107  CB        47.5790  100.2090   37.2350 C.3   218  PRO218      0.0310
    108  CG        46.6220  101.3900   37.2420 C.3   218  PRO218      0.0237
    109  CD        45.2180  100.8060   37.0040 C.3   218  PRO218      0.0939
    110  N         47.6430   97.8250   39.5990 N.am  219  LEU219     -0.1978
    111  CA        47.9140   97.4660   40.9930 C.3   219  LEU219      0.1596
    112  C         49.4120   97.1170   41.0640 C.2   219  LEU219      0.2287
    113  O         49.9430   96.3950   40.1870 O.2   219  LEU219     -0.2864
    114  CB        47.0810   96.2180   41.3870 C.3   219  LEU219      0.0297
    115  CG        47.2420   95.6140   42.7900 C.3   219  LEU219      0.0022
    116  CD1       46.6480   96.6160   43.7950 C.3   219  LEU219      0.0001
    117  CD2       46.5790   94.2250   42.9300 C.3   219  LEU219      0.0001
    118  N         51.5730   94.9360   41.9280 N.3   221  SER221     -0.1217
    119  CA        51.7870   93.5320   42.2090 C.3   221  SER221      0.1889
    120  C         53.2240   93.1840   41.8300 C.2   221  SER221      0.2288
    121  O         53.9140   93.9760   41.1410 O.2   221  SER221     -0.2866
    122  CB        50.8300   92.7090   41.3580 C.3   221  SER221      0.2089
    123  OG        51.2290   92.8030   40.0100 O.3   221  SER221     -0.2183
    124  N         54.2390   90.9770   39.6620 N.3   223  ALA223     -0.1231
    125  CA        54.3490   90.8860   38.2150 C.3   223  ALA223      0.1694
    126  C         54.4580   92.2650   37.5820 C.2   223  ALA223      0.2591
    127  O         55.2570   92.4540   36.6600 O.2   223  ALA223     -0.2718
    128  CB        53.1700   90.0760   37.6020 C.3   223  ALA223      0.0304
    129  N         53.6660   93.2230   38.0850 N.am  224  ALA224     -0.1980
    130  CA        53.6360   94.5810   37.5390 C.3   224  ALA224      0.1597
    131  C         55.0020   95.2730   37.6730 C.2   224  ALA224      0.2287
    132  O         55.4400   95.9370   36.7450 O.2   224  ALA224     -0.2864
    133  CB        52.5760   95.4180   38.2250 C.3   224  ALA224      0.0319
    134  N         57.9140   93.9430   35.4360 N.3   227  ILE227     -0.1245
    135  CA        57.8720   94.3920   34.0410 C.3   227  ILE227      0.1561
    136  C         59.0130   95.3670   33.6980 C.2   227  ILE227      0.2260
    137  O         59.9240   95.0200   32.9300 O.2   227  ILE227     -0.2867
    138  CB        56.5030   95.0060   33.6490 C.3   227  ILE227      0.0252
    139  CG1       55.4150   93.9370   33.7130 C.3   227  ILE227      0.0019
    140  CG2       56.5800   95.6130   32.2460 C.3   227  ILE227      0.0019
    141  CD1       54.0380   94.3900   33.2320 C.3   227  ILE227      0.0001
    142  N         56.8910  101.1390   34.6440 N.3   229  PHE229     -0.1227
    143  CA        55.6600  101.4110   33.9370 C.3   229  PHE229      0.1736
    144  C         54.4920  101.4090   34.9430 C.2   229  PHE229      0.2595
    145  O         53.5090  102.1110   34.7380 O.2   229  PHE229     -0.2718
    146  CB        55.4220  100.3750   32.8240 C.3   229  PHE229      0.0547
    147  CG        56.3170  100.5420   31.5930 C.ar  229  PHE229     -0.0202
    148  CD1       57.3650   99.6390   31.3360 C.ar  229  PHE229     -0.0042
    149  CD2       56.0880  101.5680   30.6630 C.ar  229  PHE229     -0.0042
    150  CE1       58.1910   99.7640   30.1820 C.ar  229  PHE229     -0.0003
    151  CE2       56.9130  101.7030   29.5040 C.ar  229  PHE229     -0.0003
    152  CZ        57.9690  100.7960   29.2700 C.ar  229  PHE229     -0.0000
    153  N         54.6180  100.6560   36.0410 N.am  230  ILE230     -0.1980
    154  CA        53.4950  100.4900   36.9690 C.3   230  ILE230      0.1595
    155  C         53.2560  101.7120   37.8510 C.2   230  ILE230      0.2287
    156  O         52.1210  102.1190   38.0480 O.2   230  ILE230     -0.2864
    157  CB        53.5490   99.1620   37.8270 C.3   230  ILE230      0.0276
    158  CG1       52.2590   98.9890   38.6350 C.3   230  ILE230      0.0022
    159  CG2       54.8020   99.0940   38.7410 C.3   230  ILE230      0.0022
    160  CD1       51.0140   98.7380   37.7590 C.3   230  ILE230      0.0001
    161  N         51.5980  104.1570   35.5510 N.3   233  ALA233     -0.1245
    162  CA        50.1890  103.7650   35.2670 C.3   233  ALA233      0.1562
    163  C         49.2810  104.0560   36.4460 C.2   233  ALA233      0.2260
    164  O         48.1630  104.5240   36.2860 O.2   233  ALA233     -0.2867
    165  CB        50.1070  102.2840   34.8800 C.3   233  ALA233      0.0290
@<TRIPOS>BOND
     1    64    63    1
     2    64    65    1
     3    63    60    1
     4    52    53    1
     5    60    59    1
     6    60    61    1
     7    65    59    1
     8    59    54   am
     9    82    83    1
    10    54    55    2
    11    54    53    1
    12    73    72    2
    13    92    93    2
    14    92    91    1
    15    53    56    1
    16    66    61   am
    17    66    67    1
    18    90    91    1
    19    84    83    1
    20    84    85    2
    21    61    62    2
    22    72    71    1
    23    83    86    1
    24    91    94    1
    25    67    68    1
    26    70    71    1
    27    70    68   am
    28    56    57    1
    29    56    58    1
    30    94    95    1
    31    71    74    1
    32    68    69    2
    33    74    75    1
    34    36    35    2
    35    86    87    1
    36    77    75   ar
    37    77    79   ar
    38    33    34    1
    39    35    34    1
    40    34    37    1
    41    32    29    1
    42    75    76   ar
    43    79    80   ar
    44    43    42    2
    45    95    96    1
    46    87    88    1
    47    29    30    1
    48    29    28    1
    49    30    31    2
    50    88    89    1
    51   152   151   ar
    52   152   150   ar
    53   151   149   ar
    54    42    41    1
    55    96    97    1
    56    37    39    1
    57    37    38    1
    58    23    22    2
    59    76    78   ar
    60    80    81    1
    61    80    78   ar
    62   150   148   ar
    63    28    22   am
    64    47    49   ar
    65    47    45   ar
    66    22    21    1
    67    49    50   ar
    68   149   147   ar
    69    40    41    1
    70    41    44    1
    71    97    98    1
    72    44    45    1
    73   148   147   ar
    74    45    46   ar
    75    50    51    1
    76    50    48   ar
    77   147   146    1
    78    21    20    1
    79    21    24    1
    80   140   138    1
    81    46    48   ar
    82    20    17   am
    83    24    25    1
    84   146   143    1
    85    27    25   am
    86   137   136    2
    87    19    16    1
    88   141   139    1
    89    25    26    2
    90    16    17    1
    91    16    15    1
    92    17    18    2
    93   138   139    1
    94   138   135    1
    95   136   135    1
    96   143   142    1
    97   143   144    1
    98    10     9    2
    99   135   134    1
   100    13    12    1
   101    15     9   am
   102   145   144    2
   103   165   162    1
   104     9     8    1
   105   144   153   am
   106   162   161    1
   107   162   163    1
   108    12    14    1
   109    12    11    1
   110   153   154    1
   111   164   163    2
   112     8    11    1
   113     8     7    1
   114   100    99    1
   115   100   101    1
   116     7     3   am
   117   127   126    2
   118   132   131    2
   119   154   157    1
   120   154   155    1
   121   109   108    1
   122   109   103    1
   123   101   103   am
   124   101   102    2
   125   107   108    1
   126   107   104    1
   127   103   104    1
   128   130   131    1
   129   130   129    1
   130   130   133    1
   131   126   129   am
   132   126   125    1
   133   128   125    1
   134   104   105    1
   135     1     2    1
   136   160   158    1
   137     3     2    1
   138     3     4    2
   139   157   158    1
   140   157   159    1
   141   155   156    2
   142     2     5    1
   143   125   124    1
   144   105   110   am
   145   105   106    2
   146   110   111    1
   147     5     6    1
   148   123   122    1
   149   113   112    2
   150   111   112    1
   151   111   114    1
   152   121   120    2
   153   122   119    1
   154   114   115    1
   155   120   119    1
   156   118   119    1
   157   115   117    1
   158   115   116    1
