@<TRIPOS>MOLECULE
tmp/2ooxF00.pdb
 161 152 0 0 0
SMALL
GASTEIGER

@<TRIPOS>ATOM
      1  N         -2.0580    2.1260   17.9380 N.3   138  ARG138     -0.1245
      2  CA        -2.0040    0.8270   17.2480 C.3   138  ARG138      0.1563
      3  C         -0.5790    0.3780   16.9140 C.2   138  ARG138      0.2260
      4  O         -0.3730   -0.3900   15.9720 O.2   138  ARG138     -0.2867
      5  CB        -2.8630    0.8260   15.9830 C.3   138  ARG138      0.0307
      6  CG        -4.3400    0.5870   16.2220 C.3   138  ARG138      0.0489
      7  CD        -4.6860   -0.9140   16.2290 C.3   138  ARG138      0.2205
      8  NE        -4.6490   -1.5390   14.8960 N.pl3 138  ARG138     -0.0865
      9  CZ        -3.6590   -2.3110   14.4230 C.cat 138  ARG138      0.5346
     10  NH1       -2.5800   -2.5710   15.1610 N.pl3 138  ARG138      0.1354
     11  NH2       -3.7510   -2.8320   13.1960 N.pl3 138  ARG138      0.1354
     12  N          3.0560   -1.6980   17.5800 N.3   140  ARG140     -0.1245
     13  CA         3.5030   -2.9640   18.1840 C.3   140  ARG140      0.1563
     14  C          4.8210   -2.7460   18.9190 C.2   140  ARG140      0.2260
     15  O          5.3920   -3.6660   19.5530 O.2   140  ARG140     -0.2867
     16  CB         3.6730   -4.0400   17.1130 C.3   140  ARG140      0.0307
     17  CG         2.4960   -4.1520   16.1230 C.3   140  ARG140      0.0489
     18  CD         2.6930   -5.2590   15.1000 C.3   140  ARG140      0.2205
     19  NE         1.5180   -5.4570   14.2630 N.pl3 140  ARG140     -0.0865
     20  CZ         1.2430   -4.7600   13.1570 C.cat 140  ARG140      0.5346
     21  NH1        2.0450   -3.7860   12.7500 N.pl3 140  ARG140      0.1354
     22  NH2        0.1340   -5.0200   12.4680 N.pl3 140  ARG140      0.1354
     23  N          5.7300   -5.4070   22.1250 N.3   162  GLN162     -0.1245
     24  CA         4.7160   -6.0440   22.9210 C.3   162  GLN162      0.1566
     25  C          5.0790   -7.4880   23.2430 C.2   162  GLN162      0.2260
     26  O          4.7310   -7.9840   24.3220 O.2   162  GLN162     -0.2867
     27  CB         3.2970   -5.8420   22.3490 C.3   162  GLN162      0.0367
     28  CG         3.1710   -6.0650   20.8940 C.3   162  GLN162      0.0905
     29  CD         2.0110   -5.3010   20.2490 C.2   162  GLN162      0.2608
     30  OE1        1.5410   -5.7030   19.1890 O.2   162  GLN162     -0.2717
     31  NE2        1.5610   -4.2060   20.8670 N.am  162  GLN162     -0.0878
     32  N         -9.8590  -11.2870   16.4800 N.3   190  THR190     -0.1218
     33  CA       -10.6160  -10.9530   15.2750 C.3   190  THR190      0.1862
     34  C        -11.1820  -12.2220   14.6720 C.2   190  THR190      0.2287
     35  O        -10.4410  -13.1640   14.4230 O.2   190  THR190     -0.2866
     36  CB        -9.7210  -10.2250   14.2120 C.3   190  THR190      0.1770
     37  OG1       -9.0130   -9.1190   14.8090 O.3   190  THR190     -0.2211
     38  CG2      -10.5640   -9.7200   13.0610 C.3   190  THR190      0.0375
     39  N        -13.9900  -10.9570    8.6650 N.3   193  ASN193     -0.1225
     40  CA       -13.3560  -10.0380    7.7190 C.3   193  ASN193      0.1785
     41  C        -11.8630  -10.3170    7.6830 C.2   193  ASN193      0.2597
     42  O        -11.0370   -9.3950    7.5350 O.2   193  ASN193     -0.2718
     43  CB       -13.5710   -8.5690    8.1360 C.3   193  ASN193      0.1169
     44  CG       -15.0230   -8.1300    8.0790 C.2   193  ASN193      0.2627
     45  OD1      -15.9370   -8.8330    8.5340 O.2   193  ASN193     -0.2716
     46  ND2      -15.2450   -6.9360    7.5380 N.am  193  ASN193     -0.0877
     47  N        -11.5060  -11.5870    7.8510 N.am  194  LEU194     -0.1966
     48  CA       -10.0950  -11.9460    7.9580 C.3   194  LEU194      0.1728
     49  C         -9.4210  -11.7560    6.6010 C.2   194  LEU194      0.2616
     50  O         -9.9140  -12.2150    5.5940 O.2   194  LEU194     -0.2715
     51  CB        -9.9300  -13.3980    8.4440 C.3   194  LEU194      0.0311
     52  CG       -10.5050  -13.8110    9.8130 C.3   194  LEU194      0.0022
     53  CD1      -10.1350  -15.2740   10.1570 C.3   194  LEU194      0.0001
     54  CD2      -10.0610  -12.8720   10.8950 C.3   194  LEU194      0.0001
     55  N         -8.3120  -11.0490    6.5660 N.am  195  ALA195     -0.1977
     56  CA        -7.5050  -11.1010    5.3760 C.3   195  ALA195      0.1597
     57  C         -6.7990  -12.4630    5.3160 C.2   195  ALA195      0.2287
     58  O         -5.9770  -12.7830    6.1630 O.2   195  ALA195     -0.2864
     59  CB        -6.5100   -9.9770    5.3640 C.3   195  ALA195      0.0319
     60  N         -5.3850   -3.4020    5.5640 N.3   213  LYS213     -0.1245
     61  CA        -5.7890   -3.7520    6.9360 C.3   213  LYS213      0.1561
     62  C         -4.7070   -3.3700    7.9540 C.2   213  LYS213      0.2260
     63  O         -4.9530   -3.4450    9.1490 O.2   213  LYS213     -0.2867
     64  CB        -6.1410   -5.2460    7.0700 C.3   213  LYS213      0.0271
     65  CG        -7.0560   -5.8000    5.9620 C.3   213  LYS213      0.0035
     66  CD        -8.5190   -5.6590    6.2860 C.3   213  LYS213      0.0206
     67  CE        -8.9950   -6.6640    7.3450 C.3   213  LYS213      0.1093
     68  NZ       -10.3230   -6.2320    7.9130 N.3   213  LYS213     -0.1314
     69  N         -1.6920   -4.8240    8.7780 N.3   215  ILE215     -0.1231
     70  CA        -1.4280   -6.0290    9.5510 C.3   215  ILE215      0.1692
     71  C         -0.0460   -6.5040    9.1930 C.2   215  ILE215      0.2593
     72  O          0.5630   -5.9780    8.2700 O.2   215  ILE215     -0.2718
     73  CB        -2.5010   -7.1780    9.3560 C.3   215  ILE215      0.0266
     74  CG1       -2.7210   -7.5090    7.8730 C.3   215  ILE215      0.0019
     75  CG2       -3.8040   -6.8040   10.0560 C.3   215  ILE215      0.0020
     76  CD1       -3.7670   -8.5570    7.5570 C.3   215  ILE215      0.0001
     77  N          0.4570   -7.4910    9.9200 N.am  216  SER216     -0.1938
     78  CA         1.8370   -7.8960    9.7430 C.3   216  SER216      0.2055
     79  C          1.9890   -9.2940    9.1550 C.2   216  SER216      0.2642
     80  O          3.0740   -9.6890    8.7630 O.2   216  SER216     -0.2714
     81  CB         2.5680   -7.7960   11.0700 C.3   216  SER216      0.2130
     82  OG         1.8480   -8.4890   12.0730 O.3   216  SER216     -0.2179
     83  N          0.8960  -10.0320    9.0870 N.am  217  ALA217     -0.1977
     84  CA         0.8960  -11.3560    8.5320 C.3   217  ALA217      0.1597
     85  C         -0.4860  -11.6710    7.9070 C.2   217  ALA217      0.2287
     86  O         -1.4790  -10.9840    8.1800 O.2   217  ALA217     -0.2864
     87  CB         1.2720  -12.3720    9.5770 C.3   217  ALA217      0.0319
     88  N         -2.7460  -15.1840    6.9170 N.3   219  PRO219     -0.2116
     89  CA        -2.7460  -16.6370    6.9320 C.3   219  PRO219      0.1372
     90  C         -2.9460  -17.1750    5.5160 C.2   219  PRO219      0.2244
     91  O         -3.5490  -16.4830    4.6570 O.2   219  PRO219     -0.2868
     92  CB        -3.9480  -16.9880    7.7970 C.3   219  PRO219      0.0268
     93  CG        -4.7820  -15.7500    7.9390 C.3   219  PRO219      0.0207
     94  CD        -3.9040  -14.5820    7.5920 C.3   219  PRO219      0.0892
     95  N          4.2680  -14.5560   17.7180 N.3   288  HIS288     -0.1226
     96  CA         3.7890  -13.2250   17.2700 C.3   288  HIS288      0.1752
     97  C          2.2890  -13.1410   17.1860 C.2   288  HIS288      0.2595
     98  O          1.7360  -12.0420   17.2400 O.2   288  HIS288     -0.2718
     99  CB         4.3940  -12.7580   15.9480 C.3   288  HIS288      0.0759
    100  CG         5.8480  -12.4280   16.0410 C.ar  288  HIS288      0.0818
    101  ND1        6.3480  -11.5150   16.9490 N.ar  288  HIS288     -0.2268
    102  CD2        6.9160  -12.9140   15.3630 C.ar  288  HIS288      0.1154
    103  CE1        7.6570  -11.4340   16.8120 C.ar  288  HIS288      0.1986
    104  NE2        8.0260  -12.2670   15.8520 N.ar  288  HIS288     -0.2212
    105  N          1.6360  -14.2890   17.0440 N.am  289  ARG289     -0.1980
    106  CA         0.1790  -14.3500   17.0980 C.3   289  ARG289      0.1597
    107  C         -0.2620  -15.7810   17.1230 C.2   289  ARG289      0.2287
    108  O          0.4850  -16.6550   16.7430 O.2   289  ARG289     -0.2864
    109  CB        -0.4650  -13.6440   15.8960 C.3   289  ARG289      0.0334
    110  CG        -0.2100  -14.3390   14.5900 C.3   289  ARG289      0.0492
    111  CD        -0.4450  -13.3880   13.4210 C.3   289  ARG289      0.2205
    112  NE         0.6700  -12.4630   13.2040 N.pl3 289  ARG289     -0.0865
    113  CZ         1.8590  -12.8320   12.7470 C.cat 289  ARG289      0.5346
    114  NH1        2.7940  -11.9170   12.5860 N.pl3 289  ARG289      0.1354
    115  NH2        2.1050  -14.1150   12.4610 N.pl3 289  ARG289      0.1354
    116  N         -3.2520  -18.2990   15.6890 N.3   291  PHE291     -0.1241
    117  CA        -4.3590  -18.5090   14.7670 C.3   291  PHE291      0.1605
    118  C         -5.3650  -19.4940   15.3610 C.2   291  PHE291      0.2264
    119  O         -5.0250  -20.6510   15.6360 O.2   291  PHE291     -0.2867
    120  CB        -3.8400  -19.0310   13.4330 C.3   291  PHE291      0.0534
    121  CG        -3.0770  -18.0040   12.6280 C.ar  291  PHE291     -0.0203
    122  CD1       -1.6910  -18.1290   12.4260 C.ar  291  PHE291     -0.0042
    123  CD2       -3.7330  -16.9020   12.0550 C.ar  291  PHE291     -0.0042
    124  CE1       -0.9700  -17.1660   11.6580 C.ar  291  PHE291     -0.0003
    125  CE2       -3.0090  -15.9540   11.3050 C.ar  291  PHE291     -0.0003
    126  CZ        -1.6130  -16.0970   11.1060 C.ar  291  PHE291     -0.0000
    127  N         -7.9610  -14.9500   14.7190 N.3   302  ILE302     -0.1245
    128  CA        -6.5800  -14.5830   14.9550 C.3   302  ILE302      0.1561
    129  C         -6.5330  -13.8970   16.2900 C.2   302  ILE302      0.2260
    130  O         -7.3820  -13.0630   16.5970 O.2   302  ILE302     -0.2867
    131  CB        -6.1000  -13.6330   13.8770 C.3   302  ILE302      0.0252
    132  CG1       -6.4590  -14.2340   12.4990 C.3   302  ILE302      0.0019
    133  CG2       -4.6160  -13.3270   14.0820 C.3   302  ILE302      0.0019
    134  CD1       -5.8750  -13.5620   11.2840 C.3   302  ILE302      0.0001
    135  N         -3.6650  -11.8800   18.2030 N.3   304  SER304     -0.1202
    136  CA        -2.3330  -11.3860   18.1840 C.3   304  SER304      0.2020
    137  C         -1.9400  -10.7090   19.4940 C.2   304  SER304      0.2619
    138  O         -2.7610  -10.5170   20.3960 O.2   304  SER304     -0.2717
    139  CB        -2.1910  -10.4570   17.0210 C.3   304  SER304      0.2103
    140  OG        -2.8100   -9.2520   17.3670 O.3   304  SER304     -0.2182
    141  N         -0.6620  -10.3500   19.5930 N.am  305  LEU305     -0.1965
    142  CA        -0.0920   -9.8790   20.8460 C.3   305  LEU305      0.1728
    143  C         -0.7700   -8.6000   21.3080 C.2   305  LEU305      0.2616
    144  O         -0.8940   -8.3600   22.5260 O.2   305  LEU305     -0.2715
    145  CB         1.4100   -9.6720   20.7090 C.3   305  LEU305      0.0311
    146  CG         2.1870  -10.9230   20.2900 C.3   305  LEU305      0.0022
    147  CD1        3.6590  -10.5810   20.1400 C.3   305  LEU305      0.0001
    148  CD2        2.0030  -12.0290   21.2980 C.3   305  LEU305      0.0001
    149  N         -1.2250   -7.7890   20.3390 N.am  306  ALA306     -0.1963
    150  CA        -1.8220   -6.5160   20.6610 C.3   306  ALA306      0.1728
    151  C         -3.1430   -6.8260   21.2810 C.2   306  ALA306      0.2616
    152  O         -3.4890   -6.2260   22.2870 O.2   306  ALA306     -0.2715
    153  CB        -1.9920   -5.6790   19.4440 C.3   306  ALA306      0.0334
    154  N         -3.8610   -7.7940   20.7030 N.am  307  ASP307     -0.1971
    155  CA        -5.1480   -8.2470   21.2650 C.3   307  ASP307      0.1709
    156  C         -4.9870   -8.7440   22.6960 C.2   307  ASP307      0.2293
    157  O         -5.8410   -8.5060   23.5170 O.2   307  ASP307     -0.2864
    158  CB        -5.7920   -9.3660   20.4460 C.3   307  ASP307      0.1436
    159  CG        -6.1890   -8.9280   19.0740 C.2   307  ASP307      0.3671
    160  OD1       -6.9780   -7.9470   18.9510 O.co2 307  ASP307     -0.2456
    161  OD2       -5.7240   -9.5930   18.1190 O.co2 307  ASP307     -0.2456
@<TRIPOS>BOND
     1    91    90    2
     2    57    56    1
     3    57    58    2
     4    59    56    1
     5    56    55    1
     6    90    89    1
     7    60    61    1
     8    50    49    2
     9    65    66    1
    10    65    64    1
    11    66    67    1
    12    55    49   am
    13    49    48    1
    14    88    89    1
    15    88    94    1
    16    89    92    1
    17    61    64    1
    18    61    62    1
    19    67    68    1
    20    42    41    2
    21    46    44   am
    22    76    74    1
    23    94    93    1
    24    41    40    1
    25    41    47   am
    26    40    43    1
    27    40    39    1
    28    92    93    1
    29    47    48    1
    30    74    73    1
    31    85    86    2
    32    85    84    1
    33    62    63    2
    34    48    51    1
    35    44    43    1
    36    44    45    2
    37    72    71    2
    38    51    52    1
    39    84    83    1
    40    84    87    1
    41    80    79    2
    42    69    70    1
    43    83    79   am
    44    79    78    1
    45    71    70    1
    46    71    77   am
    47    73    70    1
    48    73    75    1
    49    78    77    1
    50    78    81    1
    51    52    53    1
    52    52    54    1
    53    81    82    1
    54   126   125   ar
    55   126   124   ar
    56   134   132    1
    57   125   123   ar
    58   124   122   ar
    59   123   121   ar
    60   122   121   ar
    61   115   113    1
    62    22    20    1
    63   132   131    1
    64   114   113    1
    65   121   120    1
    66   113   112    2
    67    21    20    1
    68    38    36    1
    69    20    19    2
    70    11     9    1
    71   112   111    1
    72   111   110    1
    73   120   117    1
    74   131   133    1
    75   131   128    1
    76    36    37    1
    77    36    33    1
    78    19    18    1
    79    35    34    2
    80     9     8    2
    81     9    10    1
    82   110   109    1
    83    34    33    1
    84   127   128    1
    85   117   118    1
    86   117   116    1
    87     8     7    1
    88   128   129    1
    89    18    17    1
    90    33    32    1
    91   118   119    2
    92   102   104   ar
    93   102   100   ar
    94   104   103   ar
    95   109   106    1
    96    99   100    1
    97    99    96    1
    98     4     3    2
    99     5     6    1
   100     5     2    1
   101   100   101   ar
   102    17    16    1
   103     6     7    1
   104   129   130    2
   105   108   107    2
   106   103   101   ar
   107     3     2    1
   108   139   140    1
   109   139   136    1
   110   105   106    1
   111   105    97   am
   112   106   107    1
   113    16    13    1
   114    97    98    2
   115    97    96    1
   116     2     1    1
   117    96    95    1
   118    12    13    1
   119   161   159   ar
   120    13    14    1
   121   136   135    1
   122   136   137    1
   123    14    15    2
   124   160   159   ar
   125   159   158    1
   126    30    29    2
   127   153   150    1
   128   137   141   am
   129   137   138    2
   130   141   142    1
   131   147   146    1
   132    29    31   am
   133    29    28    1
   134   146   145    1
   135   146   148    1
   136   149   150    1
   137   149   143   am
   138   158   155    1
   139   150   151    1
   140   154   155    1
   141   154   151   am
   142   145   142    1
   143   142   143    1
   144    28    27    1
   145   155   156    1
   146   151   152    2
   147   143   144    2
   148    23    24    1
   149    27    24    1
   150   156   157    2
   151    24    25    1
   152    25    26    2
