@<TRIPOS>MOLECULE
tmp/2ooyC00.pdb
 180 173 0 0 0
SMALL
GASTEIGER

@<TRIPOS>ATOM
      1  N         -3.1590  -18.6390   18.9790 N.3   138  ARG138     -0.1245
      2  CA        -3.4030  -17.9070   20.2840 C.3   138  ARG138      0.1563
      3  C         -3.9900  -16.4880   20.1100 C.2   138  ARG138      0.2260
      4  O         -5.1300  -16.1940   20.5350 O.2   138  ARG138     -0.2867
      5  CB        -2.2190  -17.9110   21.2830 C.3   138  ARG138      0.0307
      6  CG        -1.6550  -19.2910   21.6260 C.3   138  ARG138      0.0489
      7  CD        -2.2950  -19.8830   22.8750 C.3   138  ARG138      0.2205
      8  NE        -3.7030  -20.2150   22.6790 N.pl3 138  ARG138     -0.0865
      9  CZ        -4.1370  -21.2870   22.0340 C.cat 138  ARG138      0.5346
     10  NH1       -3.2720  -22.1470   21.5200 N.pl3 138  ARG138      0.1354
     11  NH2       -5.4360  -21.5200   21.9240 N.pl3 138  ARG138      0.1354
     12  N         -4.8150  -14.4210   21.3700 N.3   140  ARG140     -0.1245
     13  CA        -5.2100  -13.8950   22.6860 C.3   140  ARG140      0.1563
     14  C         -6.1320  -12.6900   22.7990 C.2   140  ARG140      0.2260
     15  O         -6.7610  -12.5230   23.8170 O.2   140  ARG140     -0.2867
     16  CB        -3.9800  -13.6680   23.5640 C.3   140  ARG140      0.0307
     17  CG        -3.5700  -14.9300   24.3110 C.3   140  ARG140      0.0489
     18  CD        -2.1310  -14.8930   24.8080 C.3   140  ARG140      0.2205
     19  NE        -1.5330  -16.2100   24.6800 N.pl3 140  ARG140     -0.0865
     20  CZ        -0.4060  -16.4590   24.0270 C.cat 140  ARG140      0.5346
     21  NH1        0.2710  -15.4700   23.4630 N.pl3 140  ARG140      0.1354
     22  NH2        0.0430  -17.7120   23.9540 N.pl3 140  ARG140      0.1354
     23  N         -9.7640  -12.2730   25.4220 N.3   162  GLN162     -0.1245
     24  CA       -10.2950  -13.5440   25.9500 C.3   162  GLN162      0.1566
     25  C        -11.0010  -13.3600   27.2930 C.2   162  GLN162      0.2260
     26  O        -12.1270  -13.8600   27.5240 O.2   162  GLN162     -0.2867
     27  CB        -9.1740  -14.5480   26.1150 C.3   162  GLN162      0.0367
     28  CG        -8.6780  -15.0210   24.7750 C.3   162  GLN162      0.0905
     29  CD        -7.5070  -15.9730   24.8540 C.2   162  GLN162      0.2608
     30  OE1       -6.5620  -15.7880   25.6610 O.2   162  GLN162     -0.2717
     31  NE2       -7.5440  -17.0070   23.9890 N.am  162  GLN162     -0.0878
     32  N         -6.4210  -27.5910   30.4930 N.3   189  GLY189     -0.1210
     33  CA        -5.1440  -27.1410   31.0740 C.3   189  GLY189      0.1956
     34  C         -3.9780  -28.0490   30.7870 C.2   189  GLY189      0.2612
     35  O         -4.1790  -29.1840   30.4190 O.2   189  GLY189     -0.2717
     36  N         -2.7610  -27.5590   30.9340 N.am  190  THR190     -0.1952
     37  CA        -1.5850  -28.4090   30.7320 C.3   190  THR190      0.1897
     38  C         -1.0950  -28.8630   32.0910 C.2   190  THR190      0.2313
     39  O         -1.1850  -28.0900   33.0500 O.2   190  THR190     -0.2863
     40  CB        -0.4760  -27.6750   29.9660 C.3   190  THR190      0.1794
     41  OG1       -0.8510  -27.5830   28.6090 O.3   190  THR190     -0.2208
     42  CG2        0.7900  -28.4220   29.9610 C.3   190  THR190      0.0378
     43  N          5.0990  -31.5750   31.4380 N.3   193  ASN193     -0.1225
     44  CA         5.9190  -30.6990   30.6540 C.3   193  ASN193      0.1785
     45  C          5.7490  -29.2290   30.9700 C.2   193  ASN193      0.2597
     46  O          5.8470  -28.4170   30.0560 O.2   193  ASN193     -0.2718
     47  CB         5.5530  -30.8720   29.2100 C.3   193  ASN193      0.1169
     48  CG         6.4860  -31.7280   28.5440 C.2   193  ASN193      0.2627
     49  OD1        6.5530  -32.9190   28.8410 O.2   193  ASN193     -0.2716
     50  ND2        7.3070  -31.1350   27.6740 N.am  193  ASN193     -0.0877
     51  N          5.5090  -28.8790   32.2330 N.am  194  LEU194     -0.1966
     52  CA         5.3780  -27.4730   32.5870 C.3   194  LEU194      0.1728
     53  C          6.6710  -26.6290   32.4250 C.2   194  LEU194      0.2616
     54  O          7.7330  -27.0290   32.8900 O.2   194  LEU194     -0.2715
     55  CB         4.8100  -27.3640   33.9990 C.3   194  LEU194      0.0311
     56  CG         3.3930  -27.9130   34.1360 C.3   194  LEU194      0.0022
     57  CD1        2.9670  -27.8100   35.5530 C.3   194  LEU194      0.0001
     58  CD2        2.3770  -27.2260   33.2380 C.3   194  LEU194      0.0001
     59  N          6.5960  -25.4720   31.7600 N.am  195  ALA195     -0.1977
     60  CA         7.7920  -24.6340   31.6500 C.3   195  ALA195      0.1597
     61  C          7.8370  -23.7220   32.8550 C.2   195  ALA195      0.2287
     62  O          6.8700  -23.0010   33.1140 O.2   195  ALA195     -0.2864
     63  CB         7.7770  -23.8400   30.4290 C.3   195  ALA195      0.0319
     64  N          7.5180  -21.8690   23.5210 N.3   213  LYS213     -0.1231
     65  CA         6.3280  -22.5380   24.0620 C.3   213  LYS213      0.1693
     66  C          4.9930  -21.8380   23.6990 C.2   213  LYS213      0.2592
     67  O          3.9290  -22.2740   24.1430 O.2   213  LYS213     -0.2718
     68  CB         6.4380  -22.5870   25.5800 C.3   213  LYS213      0.0285
     69  CG         7.3420  -23.6200   26.0790 C.3   213  LYS213      0.0035
     70  CD         6.6310  -24.9500   26.0490 C.3   213  LYS213      0.0206
     71  CE         7.5560  -26.0700   26.5270 C.3   213  LYS213      0.1093
     72  NZ         6.8460  -26.9100   27.5570 N.3   213  LYS213     -0.1314
     73  N          5.0460  -20.7660   22.9040 N.am  214  ASN214     -0.1960
     74  CA         3.9360  -19.8000   22.7860 C.3   214  ASN214      0.1819
     75  C          3.1000  -19.7610   24.0380 C.2   214  ASN214      0.2621
     76  O          2.1130  -20.5070   24.1510 O.2   214  ASN214     -0.2715
     77  CB         3.0600  -20.0450   21.5530 C.3   214  ASN214      0.1195
     78  CG         1.9450  -18.9980   21.3680 C.2   214  ASN214      0.2630
     79  OD1        1.0870  -18.7720   22.2160 O.2   214  ASN214     -0.2716
     80  ND2        1.9200  -18.4350   20.2080 N.am  214  ASN214     -0.0877
     81  N          3.5170  -18.8920   24.9600 N.am  215  ILE215     -0.1963
     82  CA         2.8840  -18.7030   26.2380 C.3   215  ILE215      0.1727
     83  C          2.9890  -17.2550   26.6140 C.2   215  ILE215      0.2617
     84  O          3.9110  -16.5630   26.1640 O.2   215  ILE215     -0.2715
     85  CB         3.6260  -19.4550   27.3120 C.3   215  ILE215      0.0290
     86  CG1        3.9620  -20.8600   26.8690 C.3   215  ILE215      0.0022
     87  CG2        2.7330  -19.6320   28.4940 C.3   215  ILE215      0.0023
     88  CD1        2.6900  -21.7470   26.7070 C.3   215  ILE215      0.0001
     89  N          2.0820  -16.7730   27.4630 N.am  216  SER216     -0.1936
     90  CA         2.1080  -15.3570   27.8870 C.3   216  SER216      0.2055
     91  C          2.6940  -15.2030   29.2590 C.2   216  SER216      0.2643
     92  O          2.8430  -14.0600   29.7130 O.2   216  SER216     -0.2714
     93  CB         0.7120  -14.7670   27.9480 C.3   216  SER216      0.2130
     94  OG        -0.1100  -15.5170   28.8070 O.3   216  SER216     -0.2179
     95  N          3.0080  -16.3330   29.9160 N.am  217  ALA217     -0.1963
     96  CA         3.4360  -16.3240   31.3090 C.3   217  ALA217      0.1728
     97  C          4.1530  -17.6170   31.7130 C.2   217  ALA217      0.2616
     98  O          3.9760  -18.6280   31.0830 O.2   217  ALA217     -0.2715
     99  CB         2.2090  -16.0160   32.2730 C.3   217  ALA217      0.0334
    100  N          4.9530  -17.5910   32.7810 N.am  218  VAL218     -0.1964
    101  CA         5.7130  -18.7730   33.2690 C.3   218  VAL218      0.1712
    102  C          5.7090  -18.7740   34.7850 C.2   218  VAL218      0.2458
    103  O          6.1920  -17.7990   35.3980 O.2   218  VAL218     -0.2730
    104  CB         7.1700  -18.6660   32.9600 C.3   218  VAL218      0.0289
    105  CG1        7.8360  -19.8240   33.6040 C.3   218  VAL218      0.0023
    106  CG2        7.3900  -18.6210   31.4930 C.3   218  VAL218      0.0023
    107  N          5.2460  -19.8740   35.4090 N.am  219  PRO219     -0.2727
    108  CA         5.0890  -19.9300   36.8730 C.3   219  PRO219      0.1402
    109  C          6.4700  -20.0410   37.4900 C.2   219  PRO219      0.2269
    110  O          7.3390  -20.6370   36.9010 O.2   219  PRO219     -0.2865
    111  CB         4.3080  -21.2180   37.0910 C.3   219  PRO219      0.0296
    112  CG         4.6550  -22.0650   35.9860 C.3   219  PRO219      0.0237
    113  CD         4.9710  -21.1740   34.7860 C.3   219  PRO219      0.0939
    114  N         -6.4850  -13.5050   34.0050 N.3   288  HIS288     -0.1226
    115  CA        -5.4360  -14.0140   33.0360 C.3   288  HIS288      0.1752
    116  C         -5.4240  -15.5030   33.3700 C.2   288  HIS288      0.2595
    117  O         -6.4880  -15.9790   33.6690 O.2   288  HIS288     -0.2718
    118  CB        -4.0350  -13.3390   33.1210 C.3   288  HIS288      0.0759
    119  CG        -4.0340  -11.8790   33.5250 C.ar  288  HIS288      0.0818
    120  ND1       -2.8750  -11.2150   33.8990 N.ar  288  HIS288     -0.2268
    121  CD2       -5.0310  -10.9640   33.6350 C.ar  288  HIS288      0.1154
    122  CE1       -3.1550   -9.9600   34.2070 C.ar  288  HIS288      0.1986
    123  NE2       -4.4580   -9.7810   34.0640 N.ar  288  HIS288     -0.2212
    124  N         -4.3180  -16.2310   33.4370 N.am  289  ARG289     -0.1980
    125  CA        -4.3940  -17.6420   33.9540 C.3   289  ARG289      0.1597
    126  C         -4.6530  -18.0120   35.4880 C.2   289  ARG289      0.2287
    127  O         -4.5400  -17.1860   36.3920 O.2   289  ARG289     -0.2864
    128  CB        -3.1430  -18.3570   33.5630 C.3   289  ARG289      0.0334
    129  CG        -2.0370  -18.0670   34.5550 C.3   289  ARG289      0.0492
    130  CD        -0.7250  -17.9420   33.8630 C.3   289  ARG289      0.2205
    131  NE        -0.7840  -17.0040   32.7550 N.pl3 289  ARG289     -0.0865
    132  CZ        -0.8450  -15.6810   32.8680 C.cat 289  ARG289      0.5346
    133  NH1       -0.9190  -15.0750   34.0510 N.pl3 289  ARG289      0.1354
    134  NH2       -0.8640  -14.9600   31.7630 N.pl3 289  ARG289      0.1354
    135  N         -3.2780  -21.1090   38.2420 N.3   291  PHE291     -0.1241
    136  CA        -2.4330  -22.2490   38.3110 C.3   291  PHE291      0.1605
    137  C         -3.0830  -23.2920   39.1800 C.2   291  PHE291      0.2264
    138  O         -3.8450  -22.9960   40.0980 O.2   291  PHE291     -0.2867
    139  CB        -1.0610  -21.8740   38.8460 C.3   291  PHE291      0.0534
    140  CG        -0.2620  -20.9970   37.9170 C.ar  291  PHE291     -0.0203
    141  CD1       -0.3580  -19.6090   37.9880 C.ar  291  PHE291     -0.0042
    142  CD2        0.5870  -21.5510   36.9770 C.ar  291  PHE291     -0.0042
    143  CE1        0.3790  -18.7800   37.1200 C.ar  291  PHE291     -0.0003
    144  CE2        1.3110  -20.7380   36.1090 C.ar  291  PHE291     -0.0003
    145  CZ         1.2120  -19.3420   36.1920 C.ar  291  PHE291     -0.0000
    146  N         -1.3880  -25.8550   34.9000 N.3   302  ILE302     -0.1245
    147  CA        -1.8040  -24.5140   34.4440 C.3   302  ILE302      0.1561
    148  C         -3.1270  -24.4680   33.6790 C.2   302  ILE302      0.2260
    149  O         -3.1930  -24.8210   32.5270 O.2   302  ILE302     -0.2867
    150  CB        -0.7680  -23.8900   33.5070 C.3   302  ILE302      0.0252
    151  CG1        0.4490  -23.4870   34.3010 C.3   302  ILE302      0.0019
    152  CG2       -1.3000  -22.6450   32.8580 C.3   302  ILE302      0.0019
    153  CD1        1.6490  -24.3170   33.9590 C.3   302  ILE302      0.0001
    154  N         -5.3870  -22.1020   31.6990 N.3   304  SER304     -0.1202
    155  CA        -5.2860  -20.7460   31.1570 C.3   304  SER304      0.2020
    156  C         -6.5940  -20.3270   30.5980 C.2   304  SER304      0.2619
    157  O         -7.5490  -21.0810   30.5960 O.2   304  SER304     -0.2717
    158  CB        -4.3010  -20.6540   30.0160 C.3   304  SER304      0.2103
    159  OG        -5.0450  -20.6400   28.8160 O.3   304  SER304     -0.2182
    160  N         -6.5940  -19.1110   30.0730 N.am  305  LEU305     -0.1965
    161  CA        -7.8020  -18.4890   29.6180 C.3   305  LEU305      0.1728
    162  C         -8.2030  -19.0750   28.3350 C.2   305  LEU305      0.2616
    163  O         -9.3620  -19.4900   28.2190 O.2   305  LEU305     -0.2715
    164  CB        -7.6450  -16.9930   29.4340 C.3   305  LEU305      0.0311
    165  CG        -7.7560  -16.3320   30.7930 C.3   305  LEU305      0.0022
    166  CD1       -8.1060  -14.8880   30.5660 C.3   305  LEU305      0.0001
    167  CD2       -8.7960  -17.0390   31.6410 C.3   305  LEU305      0.0001
    168  N         -7.2970  -19.0830   27.3440 N.am  306  ALA306     -0.1963
    169  CA        -7.6700  -19.7320   26.0830 C.3   306  ALA306      0.1728
    170  C         -8.2000  -21.1570   26.4260 C.2   306  ALA306      0.2616
    171  O         -9.3070  -21.5030   25.9470 O.2   306  ALA306     -0.2715
    172  CB        -6.5320  -19.7620   25.0800 C.3   306  ALA306      0.0334
    173  N         -7.4520  -21.9070   27.2940 N.am  307  ASP307     -0.1971
    174  CA        -7.7860  -23.2550   27.8060 C.3   307  ASP307      0.1709
    175  C         -9.2480  -23.3650   28.0870 C.2   307  ASP307      0.2293
    176  O         -9.9490  -24.1710   27.4870 O.2   307  ASP307     -0.2864
    177  CB        -7.0330  -23.5720   29.0890 C.3   307  ASP307      0.1436
    178  CG        -5.6310  -24.1270   28.8300 C.2   307  ASP307      0.3671
    179  OD1       -5.5070  -24.8000   27.7950 O.co2 307  ASP307     -0.2456
    180  OD2       -4.6460  -23.9020   29.6290 O.co2 307  ASP307     -0.2456
@<TRIPOS>BOND
     1     1     2    1
     2     3     2    1
     3     3     4    2
     4    80    78   am
     5     2     5    1
     6     5     6    1
     7    78    77    1
     8    78    79    2
     9    12    13    1
    10    10     9    1
    11    77    74    1
    12     6     7    1
    13    11     9    1
    14     9     8    2
    15     8     7    1
    16    13    14    1
    17    13    16    1
    18    74    73    1
    19    74    75    1
    20    14    15    2
    21    73    66   am
    22    21    20    1
    23    64    65    1
    24    16    17    1
    25    66    65    1
    26    66    67    2
    27    22    20    1
    28    31    29   am
    29    20    19    2
    30    75    76    2
    31    75    81   am
    32    65    68    1
    33    17    18    1
    34    19    18    1
    35    28    29    1
    36    28    27    1
    37    29    30    2
    38    81    82    1
    39   172   169    1
    40    23    24    1
    41    68    69    1
    42   171   170    2
    43    24    27    1
    44    24    25    1
    45    70    69    1
    46    70    71    1
    47   169   170    1
    48   169   168    1
    49    84    83    2
    50    82    83    1
    51    82    85    1
    52   170   173   am
    53    71    72    1
    54    83    89   am
    55    88    86    1
    56    86    85    1
    57    25    26    2
    58   173   174    1
    59    85    87    1
    60   168   162   am
    61    89    90    1
    62   176   175    2
    63    50    48   am
    64   179   178   ar
    65   174   175    1
    66   174   177    1
    67    90    93    1
    68    90    91    1
    69    93    94    1
    70   163   162    2
    71   162   161    1
    72    48    49    2
    73    48    47    1
    74    41    40    1
    75   159   158    1
    76   178   177    1
    77   178   180   ar
    78    47    44    1
    79    91    92    2
    80    91    95   am
    81   164   161    1
    82   164   165    1
    83   161   160    1
    84    95    96    1
    85    42    40    1
    86    40    37    1
    87   158   155    1
    88    46    45    2
    89   160   156   am
    90    35    34    2
    91    63    60    1
    92    32    33    1
    93   166   165    1
    94   157   156    2
    95   156   155    1
    96    44    45    1
    97    44    43    1
    98    37    36    1
    99    37    38    1
   100    34    36   am
   101    34    33    1
   102   165   167    1
   103    45    51   am
   104    98    97    2
   105   155   154    1
   106    96    97    1
   107    96    99    1
   108   106   104    1
   109    60    59    1
   110    60    61    1
   111    97   100   am
   112    59    53   am
   113   134   132    1
   114    38    39    2
   115    51    52    1
   116    53    52    1
   117    53    54    2
   118   149   148    2
   119    52    55    1
   120   131   132    2
   121   131   130    1
   122   100   101    1
   123    61    62    2
   124   152   150    1
   125   132   133    1
   126   104   101    1
   127   104   105    1
   128   115   118    1
   129   115   116    1
   130   115   114    1
   131   118   119    1
   132    58    56    1
   133   101   102    1
   134   116   124   am
   135   116   117    2
   136   124   125    1
   137   150   151    1
   138   150   147    1
   139   119   121   ar
   140   119   120   ar
   141   128   125    1
   142   128   129    1
   143   121   123   ar
   144   148   147    1
   145   130   129    1
   146   120   122   ar
   147   125   126    1
   148   153   151    1
   149    55    56    1
   150   123   122   ar
   151    56    57    1
   152   147   146    1
   153   102   103    2
   154   102   107   am
   155   113   107    1
   156   113   112    1
   157   107   108    1
   158   126   127    2
   159   112   111    1
   160   144   145   ar
   161   144   142   ar
   162   145   143   ar
   163   108   111    1
   164   108   109    1
   165   110   109    2
   166   142   140   ar
   167   143   141   ar
   168   140   141   ar
   169   140   139    1
   170   135   136    1
   171   136   139    1
   172   136   137    1
   173   137   138    2
