@<TRIPOS>MOLECULE
tmp/2oozB00.pdb
 86 83 0 0 0
SMALL
GASTEIGER

@<TRIPOS>ATOM
      1  N         36.0150   19.9660   34.1810 N.3     1  PRO1       -0.2102
      2  CA        35.4770   21.0240   33.2890 C.3     1  PRO1        0.1504
      3  C         34.2310   20.4980   32.5890 C.2     1  PRO1        0.2575
      4  O         34.1590   19.3180   32.2400 O.2     1  PRO1       -0.2718
      5  CB        36.5530   21.3390   32.2640 C.3     1  PRO1        0.0282
      6  CG        37.8270   20.8670   32.9990 C.3     1  PRO1        0.0208
      7  CD        37.3910   19.6240   33.7790 C.3     1  PRO1        0.0893
      8  N         33.2440   21.3640   32.3970 N.am    2  MET2       -0.1980
      9  CA        32.0280   20.9580   31.7210 C.3     2  MET2        0.1605
     10  C         31.6770   21.9700   30.6560 C.2     2  MET2        0.2287
     11  O         31.6930   23.1820   30.8870 O.2     2  MET2       -0.2864
     12  CB        30.8750   20.7630   32.7060 C.3     2  MET2        0.0413
     13  CG        30.6000   21.9310   33.5890 C.3     2  MET2        0.0598
     14  SD        29.2120   21.5170   34.6730 S.3     2  MET2       -0.1393
     15  CE        27.9100   21.6810   33.6050 C.3     2  MET2        0.0692
     16  N         43.3560   18.9660   31.8090 N.3    32  LYS32      -0.1245
     17  CA        42.7370   18.0690   32.7890 C.3    32  LYS32       0.1561
     18  C         42.4690   16.7120   32.1230 C.2    32  LYS32       0.2260
     19  O         42.2450   16.6310   30.9130 O.2    32  LYS32      -0.2867
     20  CB        41.4050   18.6490   33.2930 C.3    32  LYS32       0.0271
     21  CG        41.3860   20.1510   33.5890 C.3    32  LYS32       0.0035
     22  CD        40.8690   20.4550   34.9810 C.3    32  LYS32       0.0206
     23  CE        41.6190   21.6240   35.6280 C.3    32  LYS32       0.1093
     24  NZ        40.8310   22.2980   36.7110 N.3    32  LYS32      -0.1314
     25  N         37.5240   13.5960   33.7100 N.3    36  TYR36      -0.1241
     26  CA        36.8150   14.6750   34.4110 C.3    36  TYR36       0.1605
     27  C         35.9860   15.5860   33.5050 C.2    36  TYR36       0.2264
     28  O         35.2280   16.4310   33.9980 O.2    36  TYR36      -0.2867
     29  CB        37.8150   15.5520   35.1570 C.3    36  TYR36       0.0534
     30  CG        38.4430   14.8910   36.3600 C.ar   36  TYR36      -0.0201
     31  CD1       37.8950   15.0510   37.6350 C.ar   36  TYR36      -0.0009
     32  CD2       39.5790   14.0960   36.2240 C.ar   36  TYR36      -0.0009
     33  CE1       38.4740   14.4310   38.7530 C.ar   36  TYR36       0.0417
     34  CE2       40.1650   13.4680   37.3370 C.ar   36  TYR36       0.0417
     35  CZ        39.6080   13.6450   38.5910 C.ar   36  TYR36       0.1957
     36  OH        40.2080   13.0570   39.6910 O.3    36  TYR36      -0.2866
     37  N         32.5250   25.6610   32.2170 N.3    62  HIS62      -0.1226
     38  CA        32.7560   25.8300   33.6470 C.3    62  HIS62       0.1752
     39  C         34.0070   25.0160   33.9750 C.2    62  HIS62       0.2597
     40  O         34.1580   23.8820   33.5210 O.2    62  HIS62      -0.2718
     41  CB        31.5900   25.2670   34.4860 C.3    62  HIS62       0.0759
     42  CG        30.2790   25.9700   34.2950 C.ar   62  HIS62       0.0818
     43  ND1       29.4920   25.7970   33.1780 N.ar   62  HIS62      -0.2268
     44  CD2       29.5980   26.8150   35.1040 C.ar   62  HIS62       0.1154
     45  CE1       28.3850   26.5070   33.3050 C.ar   62  HIS62       0.1986
     46  NE2       28.4250   27.1340   34.4660 N.ar   62  HIS62      -0.2212
     47  N         34.8870   25.5820   34.7850 N.am   63  SER63      -0.1938
     48  CA        36.1130   24.8840   35.1540 C.3    63  SER63       0.2055
     49  C         36.5910   25.3780   36.4980 C.2    63  SER63       0.2642
     50  O         36.3340   26.5170   36.8650 O.2    63  SER63      -0.2714
     51  CB        37.2080   25.1420   34.1050 C.3    63  SER63       0.2130
     52  OG        38.3980   24.4140   34.4030 O.3    63  SER63      -0.2179
     53  N         37.2510   24.5060   37.2550 N.am   64  ILE64      -0.1977
     54  CA        37.8110   24.9290   38.5320 C.3    64  ILE64       0.1596
     55  C         39.2170   25.3640   38.1390 C.2    64  ILE64       0.2287
     56  O         40.1190   24.5420   37.9950 O.2    64  ILE64      -0.2864
     57  CB        37.8200   23.7650   39.5550 C.3    64  ILE64       0.0276
     58  CG1       36.3650   23.4170   39.8990 C.3    64  ILE64       0.0022
     59  CG2       38.5780   24.1730   40.8220 C.3    64  ILE64       0.0022
     60  CD1       36.1640   22.1910   40.7730 C.3    64  ILE64       0.0001
     61  N         35.0010   28.3460   38.5430 N.3   101  MET101     -0.1245
     62  CA        34.3010   27.9000   39.7440 C.3   101  MET101      0.1570
     63  C         35.2320   27.5820   40.9120 C.2   101  MET101      0.2261
     64  O         36.3650   27.1280   40.7030 O.2   101  MET101     -0.2867
     65  CB        33.5140   26.6150   39.4520 C.3   101  MET101      0.0387
     66  CG        32.5040   26.6650   38.3110 C.3   101  MET101      0.0595
     67  SD        31.0640   27.6650   38.7090 S.3   101  MET101     -0.1393
     68  CE        30.2760   26.6230   40.0050 C.3   101  MET101      0.0692
     69  N         31.4030   23.1710   43.6180 N.3   106  VAL106     -0.1245
     70  CA        31.1680   22.1410   42.6120 C.3   106  VAL106      0.1561
     71  C         30.9470   20.8000   43.3030 C.2   106  VAL106      0.2260
     72  O         31.8530   20.2390   43.9290 O.2   106  VAL106     -0.2867
     73  CB        32.3480   22.0050   41.6150 C.3   106  VAL106      0.0252
     74  CG1       32.0410   20.9040   40.6170 C.3   106  VAL106      0.0019
     75  CG2       32.5730   23.3200   40.8820 C.3   106  VAL106      0.0019
     76  N         34.3980   19.3170   45.5440 N.3   113  PHE113     -0.1241
     77  CA        35.8110   19.1850   45.2260 C.3   113  PHE113      0.1605
     78  C         36.7100   19.9100   46.2240 C.2   113  PHE113      0.2264
     79  O         37.9260   19.8990   46.0840 O.2   113  PHE113     -0.2867
     80  CB        36.0810   19.7180   43.8180 C.3   113  PHE113      0.0534
     81  CG        35.7480   18.7360   42.7370 C.ar  113  PHE113     -0.0203
     82  CD1       34.6950   18.9690   41.8560 C.ar  113  PHE113     -0.0042
     83  CD2       36.4820   17.5550   42.6110 C.ar  113  PHE113     -0.0042
     84  CE1       34.3780   18.0490   40.8720 C.ar  113  PHE113     -0.0003
     85  CE2       36.1690   16.6220   41.6220 C.ar  113  PHE113     -0.0003
     86  CZ        35.1130   16.8730   40.7490 C.ar  113  PHE113     -0.0000
@<TRIPOS>BOND
     1    10    11    2
     2    10     9    1
     3    19    18    2
     4     9     8    1
     5     9    12    1
     6    16    17    1
     7    18    17    1
     8    37    38    1
     9     4     3    2
    10     5     6    1
    11     5     2    1
    12     8     3   am
    13     3     2    1
    14    12    13    1
    15    17    20    1
    16     6     7    1
    17    43    45   ar
    18    43    42   ar
    19     2     1    1
    20    20    21    1
    21    45    46   ar
    22    27    28    2
    23    27    26    1
    24    40    39    2
    25    13    14    1
    26    21    22    1
    27    15    14    1
    28    38    39    1
    29    38    41    1
    30    25    26    1
    31     7     1    1
    32    39    47   am
    33    51    52    1
    34    51    48    1
    35    42    41    1
    36    42    44   ar
    37    26    29    1
    38    46    44   ar
    39    47    48    1
    40    22    23    1
    41    48    49    1
    42    29    30    1
    43    23    24    1
    44    32    30   ar
    45    32    34   ar
    46    30    31   ar
    47    49    50    2
    48    49    53   am
    49    53    54    1
    50    34    35   ar
    51    31    33   ar
    52    56    55    2
    53    55    54    1
    54    66    67    1
    55    66    65    1
    56    54    57    1
    57    61    62    1
    58    35    33   ar
    59    35    36    1
    60    67    68    1
    61    65    62    1
    62    57    58    1
    63    57    59    1
    64    62    63    1
    65    58    60    1
    66    74    73    1
    67    64    63    2
    68    86    84   ar
    69    86    85   ar
    70    84    82   ar
    71    75    73    1
    72    73    70    1
    73    85    83   ar
    74    82    81   ar
    75    83    81   ar
    76    70    71    1
    77    70    69    1
    78    81    80    1
    79    71    72    2
    80    80    77    1
    81    77    76    1
    82    77    78    1
    83    79    78    2
