@<TRIPOS>MOLECULE
tmp/2oozA00.pdb
 86 83 0 0 0
SMALL
GASTEIGER

@<TRIPOS>ATOM
      1  N         24.0510   41.0540   25.0500 N.3     1  PRO1       -0.2102
      2  CA        23.3330   40.3660   26.1440 C.3     1  PRO1        0.1504
      3  C         22.6280   39.1230   25.6110 C.2     1  PRO1        0.2575
      4  O         22.2920   39.0520   24.4330 O.2     1  PRO1       -0.2718
      5  CB        22.3100   41.3500   26.6890 C.3     1  PRO1        0.0282
      6  CG        22.9000   42.6880   26.2550 C.3     1  PRO1        0.0208
      7  CD        23.4970   42.4090   24.8800 C.3     1  PRO1        0.0893
      8  N         22.4150   38.1400   26.4790 N.am    2  MET2       -0.1980
      9  CA        21.7340   36.9240   26.0760 C.3     2  MET2        0.1605
     10  C         20.6490   36.5890   27.0850 C.2     2  MET2        0.2287
     11  O         20.8780   36.6130   28.2930 O.2     2  MET2       -0.2864
     12  CB        22.7200   35.7640   25.9060 C.3     2  MET2        0.0413
     13  CG        23.4960   35.3600   27.1290 C.3     2  MET2        0.0598
     14  SD        24.6040   33.9940   26.6710 S.3     2  MET2       -0.1393
     15  CE        23.5480   32.6880   26.7360 C.3     2  MET2        0.0692
     16  N         21.8110   48.2940   23.8430 N.3    32  LYS32      -0.1245
     17  CA        22.7880   47.6390   22.9790 C.3    32  LYS32       0.1561
     18  C         22.2060   47.3670   21.5980 C.2    32  LYS32       0.2260
     19  O         21.0020   47.1490   21.4570 O.2    32  LYS32      -0.2867
     20  CB        23.2350   46.3160   23.6070 C.3    32  LYS32       0.0271
     21  CG        23.6120   46.4190   25.0730 C.3    32  LYS32       0.0035
     22  CD        25.0680   46.0620   25.3020 C.3    32  LYS32       0.0206
     23  CE        25.5500   46.5930   26.6480 C.3    32  LYS32       0.1093
     24  NZ        26.9900   46.2840   26.9110 N.3    32  LYS32      -0.1314
     25  N         23.7290   42.2690   18.6840 N.3    36  TYR36      -0.1241
     26  CA        24.4240   41.5840   19.7780 C.3    36  TYR36       0.1605
     27  C         23.5040   40.8040   20.7090 C.2    36  TYR36       0.2264
     28  O         23.9710   40.0610   21.5770 O.2    36  TYR36      -0.2867
     29  CB        25.1960   42.5990   20.6100 C.3    36  TYR36       0.0534
     30  CG        26.4400   43.1520   19.9540 C.ar   36  TYR36      -0.0201
     31  CD1       27.6920   42.5870   20.1980 C.ar   36  TYR36      -0.0009
     32  CD2       26.3700   44.2640   19.1170 C.ar   36  TYR36      -0.0009
     33  CE1       28.8490   43.1240   19.6260 C.ar   36  TYR36       0.0417
     34  CE2       27.5160   44.8070   18.5440 C.ar   36  TYR36       0.0417
     35  CZ        28.7470   44.2370   18.8020 C.ar   36  TYR36       0.1957
     36  OH        29.8780   44.7930   18.2470 O.3    36  TYR36      -0.2866
     37  N         22.2360   37.4270   30.7380 N.3    62  HIS62      -0.1226
     38  CA        23.6650   37.6540   30.9130 C.3    62  HIS62       0.1752
     39  C         23.9990   38.9050   30.1040 C.2    62  HIS62       0.2597
     40  O         23.5150   39.0700   28.9880 O.2    62  HIS62      -0.2718
     41  CB        24.5030   36.4950   30.3450 C.3    62  HIS62       0.0759
     42  CG        24.3380   35.1890   31.0610 C.ar   62  HIS62       0.0818
     43  ND1       23.2490   34.3680   30.8790 N.ar   62  HIS62      -0.2268
     44  CD2       25.1620   34.5330   31.9120 C.ar   62  HIS62       0.1154
     45  CE1       23.4070   33.2600   31.5840 C.ar   62  HIS62       0.1986
     46  NE2       24.5610   33.3370   32.2210 N.ar   62  HIS62      -0.2212
     47  N         24.8310   39.7720   30.6630 N.am   63  SER63      -0.1938
     48  CA        25.2380   40.9850   29.9600 C.3    63  SER63       0.2055
     49  C         26.5940   41.4420   30.4750 C.2    63  SER63       0.2642
     50  O         26.9550   41.1780   31.6250 O.2    63  SER63      -0.2714
     51  CB        24.1980   42.1000   30.1830 C.3    63  SER63       0.2130
     52  OG        24.5460   43.2880   29.4870 O.3    63  SER63      -0.2179
     53  N         27.3730   42.0910   29.6140 N.am   64  ILE64      -0.1977
     54  CA        28.6580   42.6310   30.0500 C.3    64  ILE64       0.1596
     55  C         28.2680   44.0620   30.4300 C.2    64  ILE64       0.2287
     56  O         28.1020   44.9240   29.5640 O.2    64  ILE64      -0.2864
     57  CB        29.6990   42.6380   28.9010 C.3    64  ILE64       0.0276
     58  CG1       30.0250   41.1980   28.4800 C.3    64  ILE64       0.0022
     59  CG2       30.9490   43.3940   29.3350 C.3    64  ILE64       0.0022
     60  CD1       30.8410   41.0960   27.1800 C.3    64  ILE64       0.0001
     61  N         28.6220   39.8130   33.3660 N.3   101  MET101     -0.1245
     62  CA        29.8200   39.1130   32.8990 C.3   101  MET101      0.1570
     63  C         31.0030   40.0290   32.5770 C.2   101  MET101      0.2261
     64  O         30.8180   41.1540   32.1060 O.2   101  MET101     -0.2867
     65  CB        29.5130   38.3400   31.6050 C.3   101  MET101      0.0387
     66  CG        28.4090   37.3110   31.6700 C.3   101  MET101      0.0595
     67  SD        28.8280   35.9570   32.7580 S.3   101  MET101     -0.1393
     68  CE        30.1710   35.1220   31.8360 C.3   101  MET101      0.0692
     69  N         33.6830   36.1740   28.1720 N.3   106  VAL106     -0.1245
     70  CA        32.6640   35.9590   27.1560 C.3   106  VAL106      0.1561
     71  C         33.3560   35.7190   25.8220 C.2   106  VAL106      0.2260
     72  O         33.9830   36.6220   25.2550 O.2   106  VAL106     -0.2867
     73  CB        31.7120   37.1520   27.0100 C.3   106  VAL106      0.0252
     74  CG1       30.6970   36.8550   25.9210 C.3   106  VAL106      0.0019
     75  CG2       30.9790   37.4040   28.3370 C.3   106  VAL106      0.0019
     76  N         35.5610   39.1360   24.2940 N.3   113  PHE113     -0.1241
     77  CA        35.2580   40.5480   24.1550 C.3   113  PHE113      0.1605
     78  C         36.2550   41.4510   24.8810 C.2   113  PHE113      0.2264
     79  O         36.1110   42.6680   24.8660 O.2   113  PHE113     -0.2867
     80  CB        33.8440   40.8180   24.6590 C.3   113  PHE113      0.0534
     81  CG        32.7790   40.4900   23.6550 C.ar  113  PHE113     -0.0203
     82  CD1       31.8630   39.4720   23.8910 C.ar  113  PHE113     -0.0042
     83  CD2       32.6780   41.2260   22.4710 C.ar  113  PHE113     -0.0042
     84  CE1       30.8530   39.1840   22.9700 C.ar  113  PHE113     -0.0003
     85  CE2       31.6740   40.9500   21.5380 C.ar  113  PHE113     -0.0003
     86  CZ        30.7550   39.9230   21.7920 C.ar  113  PHE113     -0.0000
@<TRIPOS>BOND
     1    36    35    1
     2    34    35   ar
     3    34    32   ar
     4    25    26    1
     5    35    33   ar
     6    32    30   ar
     7    33    31   ar
     8    26    29    1
     9    26    27    1
    10    30    31   ar
    11    30    29    1
    12    27    28    2
    13    19    18    2
    14    85    86   ar
    15    85    83   ar
    16    18    17    1
    17    86    84   ar
    18    83    81   ar
    19    84    82   ar
    20    17    20    1
    21    17    16    1
    22    20    21    1
    23    81    82   ar
    24    81    80    1
    25    77    76    1
    26    77    80    1
    27    77    78    1
    28     4     3    2
    29    79    78    2
    30     7     1    1
    31     7     6    1
    32     1     2    1
    33    21    22    1
    34    72    71    2
    35    22    23    1
    36     3     2    1
    37     3     8   am
    38    71    70    1
    39    12     9    1
    40    12    13    1
    41    74    73    1
    42     9     8    1
    43     9    10    1
    44     2     5    1
    45     6     5    1
    46    23    24    1
    47    14    15    1
    48    14    13    1
    49    73    70    1
    50    73    75    1
    51    10    11    2
    52    70    69    1
    53    60    58    1
    54    58    57    1
    55    57    59    1
    56    57    54    1
    57    40    39    2
    58    52    51    1
    59    56    55    2
    60    53    54    1
    61    53    49   am
    62    48    51    1
    63    48    49    1
    64    48    47    1
    65    54    55    1
    66    39    47   am
    67    39    38    1
    68    41    38    1
    69    41    42    1
    70    49    50    2
    71    37    38    1
    72    43    42   ar
    73    43    45   ar
    74    42    44   ar
    75    45    46   ar
    76    65    66    1
    77    65    62    1
    78    66    67    1
    79    68    67    1
    80    44    46   ar
    81    64    63    2
    82    63    62    1
    83    62    61    1
