@<TRIPOS>MOLECULE
tmp/2op0B01.pdb
 159 151 0 0 0
SMALL
GASTEIGER

@<TRIPOS>ATOM
      1  N         14.9980  104.8700   35.2900 N.3   116  SER116     -0.1202
      2  CA        14.4240  103.6470   34.7480 C.3   116  SER116      0.2020
      3  C         13.2200  103.9290   33.8720 C.2   116  SER116      0.2619
      4  O         12.1990  103.2460   33.9450 O.2   116  SER116     -0.2717
      5  CB        14.0250  102.7130   35.8750 C.3   116  SER116      0.2103
      6  OG        13.6540  101.4790   35.3140 O.3   116  SER116     -0.2182
      7  N         13.3480  104.9500   33.0380 N.am  117  LEU117     -0.1965
      8  CA        12.2230  105.4100   32.2610 C.3   117  LEU117      0.1728
      9  C         12.6830  105.6890   30.8460 C.2   117  LEU117      0.2616
     10  O         13.8440  106.0210   30.6150 O.2   117  LEU117     -0.2715
     11  CB        11.6330  106.6660   32.9000 C.3   117  LEU117      0.0311
     12  CG        12.5390  107.8990   32.8690 C.3   117  LEU117      0.0022
     13  CD1       12.2050  108.7460   31.6480 C.3   117  LEU117      0.0001
     14  CD2       12.4060  108.7290   34.1450 C.3   117  LEU117      0.0001
     15  N         11.7620  105.5420   29.9050 N.am  118  ALA118     -0.1963
     16  CA        12.0310  105.7750   28.5010 C.3   118  ALA118      0.1728
     17  C         10.6960  106.0480   27.8320 C.2   118  ALA118      0.2616
     18  O          9.6530  105.6250   28.3240 O.2   118  ALA118     -0.2715
     19  CB        12.6880  104.5620   27.8890 C.3   118  ALA118      0.0334
     20  N         10.7160  106.7580   26.7150 N.am  119  ASN119     -0.1958
     21  CA         9.4810  107.0270   26.0070 C.3   119  ASN119      0.1819
     22  C          9.7410  107.6280   24.6470 C.2   119  ASN119      0.2621
     23  O         10.7240  108.3580   24.4680 O.2   119  ASN119     -0.2715
     24  CB         8.5980  107.9610   26.8280 C.3   119  ASN119      0.1195
     25  CG         7.1550  107.5320   26.8190 C.2   119  ASN119      0.2630
     26  OD1        6.7020  106.8840   25.8740 O.2   119  ASN119     -0.2716
     27  ND2        6.4260  107.8670   27.8770 N.am  119  ASN119     -0.0877
     28  N          8.8750  107.2930   23.6910 N.am  120  ALA120     -0.1977
     29  CA         8.9060  107.8770   22.3470 C.3   120  ALA120      0.1597
     30  C          7.5410  107.7110   21.7200 C.2   120  ALA120      0.2287
     31  O          6.9800  106.6100   21.7300 O.2   120  ALA120     -0.2864
     32  CB         9.9390  107.2220   21.4830 C.3   120  ALA120      0.0319
     33  N          7.4910  105.3340   18.4270 N.3   123  VAL123     -0.1245
     34  CA         8.3000  104.1420   18.6020 C.3   123  VAL123      0.1561
     35  C          7.9160  103.1090   17.5560 C.2   123  VAL123      0.2260
     36  O          8.7190  102.2540   17.1700 O.2   123  VAL123     -0.2867
     37  CB         8.1280  103.5520   20.0200 C.3   123  VAL123      0.0252
     38  CG1        6.6490  103.4410   20.3720 C.3   123  VAL123      0.0019
     39  CG2        8.8230  102.2040   20.1320 C.3   123  VAL123      0.0019
     40  N         19.6410  100.6410   29.5770 N.3   167  THR167     -0.1203
     41  CA        19.7940  100.8280   28.1390 C.3   167  THR167      0.1994
     42  C         19.5400   99.5170   27.3890 C.2   167  THR167      0.2617
     43  O         19.3170   98.4740   28.0020 O.2   167  THR167     -0.2717
     44  CB        21.1810  101.4340   27.7970 C.3   167  THR167      0.1784
     45  OG1       21.3270  101.5580   26.3800 O.3   167  THR167     -0.2211
     46  CG2       22.2980  100.5780   28.3520 C.3   167  THR167      0.0376
     47  N         19.5440   99.5790   26.0650 N.am  168  TYR168     -0.1975
     48  CA        19.3550   98.3880   25.2550 C.3   168  TYR168      0.1639
     49  C         20.3590   98.3340   24.0940 C.2   168  TYR168      0.2290
     50  O         20.7220   99.3490   23.5110 O.2   168  TYR168     -0.2864
     51  CB        17.9030   98.2910   24.7810 C.3   168  TYR168      0.0560
     52  CG        17.5900   97.0580   23.9780 C.ar  168  TYR168     -0.0198
     53  CD1       17.7590   95.7960   24.5120 C.ar  168  TYR168     -0.0009
     54  CD2       17.1070   97.1610   22.6810 C.ar  168  TYR168     -0.0009
     55  CE1       17.4720   94.6790   23.7790 C.ar  168  TYR168      0.0417
     56  CE2       16.8170   96.0420   21.9350 C.ar  168  TYR168      0.0417
     57  CZ        17.0030   94.8070   22.4870 C.ar  168  TYR168      0.1957
     58  OH        16.7070   93.6910   21.7430 O.3   168  TYR168     -0.2866
     59  N         12.9110   98.4450   16.7480 N.3   178  TYR178     -0.1241
     60  CA        13.1030   99.2560   17.9350 C.3   178  TYR178      0.1605
     61  C         13.2200  100.6970   17.4530 C.2   178  TYR178      0.2264
     62  O         14.3190  101.2450   17.3530 O.2   178  TYR178     -0.2867
     63  CB        14.3700   98.8010   18.6570 C.3   178  TYR178      0.0534
     64  CG        14.6010   99.3980   20.0220 C.ar  178  TYR178     -0.0201
     65  CD1       13.9040   98.9420   21.1430 C.ar  178  TYR178     -0.0009
     66  CD2       15.5600  100.3880   20.2060 C.ar  178  TYR178     -0.0009
     67  CE1       14.1460   99.4800   22.3920 C.ar  178  TYR178      0.0417
     68  CE2       15.8020  100.9250   21.4540 C.ar  178  TYR178      0.0417
     69  CZ        15.0960  100.4700   22.5310 C.ar  178  TYR178      0.1957
     70  OH        15.3670  101.0300   23.7450 O.3   178  TYR178     -0.2866
     71  N         14.4370  105.4360   19.4230 N.3   182  MET182     -0.1245
     72  CA        14.6940  104.7920   20.6880 C.3   182  MET182      0.1570
     73  C         16.1290  104.2600   20.7010 C.2   182  MET182      0.2261
     74  O         16.8140  104.3230   21.7200 O.2   182  MET182     -0.2867
     75  CB        13.6520  103.7020   20.9570 C.3   182  MET182      0.0387
     76  CG        13.4640  103.3220   22.4330 C.3   182  MET182      0.0595
     77  SD        13.2400  104.7170   23.5760 S.3   182  MET182     -0.1393
     78  CE        12.1640  105.6970   22.5820 C.3   182  MET182      0.0692
     79  N         19.1580  105.5160   23.2970 N.3   186  LYS186     -0.1245
     80  CA        20.0390  104.5950   23.9960 C.3   186  LYS186      0.1561
     81  C         21.4970  104.8650   23.6190 C.2   186  LYS186      0.2260
     82  O         22.3760  104.8490   24.4720 O.2   186  LYS186     -0.2867
     83  CB        19.6550  103.1530   23.7000 C.3   186  LYS186      0.0271
     84  CG        18.3260  102.7560   24.2820 C.3   186  LYS186      0.0035
     85  CD        18.1680  103.2520   25.7090 C.3   186  LYS186      0.0206
     86  CE        16.8630  102.7540   26.2990 C.3   186  LYS186      0.1093
     87  NZ        16.5530  103.2620   27.6730 N.3   186  LYS186     -0.1314
     88  N         18.4710   92.6550   28.9680 N.3   214  GLY214     -0.1210
     89  CA        17.8450   91.8310   27.9500 C.3   214  GLY214      0.1940
     90  C         16.3610   92.1320   27.8960 C.2   214  GLY214      0.2454
     91  O         15.9060   93.0760   28.5270 O.2   214  GLY214     -0.2732
     92  N         15.5970   91.3260   27.1480 N.am  215  PRO215     -0.2717
     93  CA        14.1520   91.4810   26.9920 C.3   215  PRO215      0.1535
     94  C         13.3540   91.0230   28.2130 C.2   215  PRO215      0.2598
     95  O         13.5330   89.9140   28.7230 O.2   215  PRO215     -0.2715
     96  CB        13.8270   90.5620   25.8090 C.3   215  PRO215      0.0310
     97  CG        15.1280   90.1470   25.2420 C.3   215  PRO215      0.0237
     98  CD        16.1000   90.2020   26.3520 C.3   215  PRO215      0.0939
     99  N         12.4590   91.8950   28.6550 N.am  216  LEU216     -0.1978
    100  CA        11.5390   91.6110   29.7380 C.3   216  LEU216      0.1596
    101  C         10.1790   92.0670   29.2410 C.2   216  LEU216      0.2287
    102  O         10.0830   93.0890   28.5560 O.2   216  LEU216     -0.2864
    103  CB        11.9350   92.4090   30.9760 C.3   216  LEU216      0.0297
    104  CG        11.2770   92.0390   32.2990 C.3   216  LEU216      0.0022
    105  CD1       11.9650   90.8290   32.8800 C.3   216  LEU216      0.0001
    106  CD2       11.3640   93.2000   33.2570 C.3   216  LEU216      0.0001
    107  N          7.7790   93.9300   29.9190 N.3   218  SER218     -0.1217
    108  CA         7.2760   95.1010   30.6130 C.3   218  SER218      0.1889
    109  C          6.1340   95.7550   29.8330 C.2   218  SER218      0.2288
    110  O          5.8900   95.4320   28.6660 O.2   218  SER218     -0.2866
    111  CB         8.4090   96.1060   30.8070 C.3   218  SER218      0.2089
    112  OG         9.0490   96.3880   29.5750 O.3   218  SER218     -0.2183
    113  N          6.0450   98.8130   28.7890 N.3   220  ALA220     -0.1231
    114  CA         6.6620   99.5900   27.7210 C.3   220  ALA220      0.1694
    115  C          7.1790   98.7320   26.5670 C.2   220  ALA220      0.2591
    116  O          7.2440   99.1940   25.4310 O.2   220  ALA220     -0.2718
    117  CB         7.7800  100.4350   28.2870 C.3   220  ALA220      0.0304
    118  N          7.5560   97.4910   26.8610 N.am  221  ALA221     -0.1980
    119  CA         8.0260   96.5780   25.8250 C.3   221  ALA221      0.1597
    120  C          6.9320   96.2870   24.7940 C.2   221  ALA221      0.2287
    121  O          7.2200   96.0480   23.6160 O.2   221  ALA221     -0.2864
    122  CB         8.5390   95.2810   26.4470 C.3   221  ALA221      0.0319
    123  N          4.9460   98.3940   23.6730 N.3   223  ALA223     -0.1231
    124  CA         4.6800   99.6150   22.9280 C.3   223  ALA223      0.1694
    125  C          4.8950   99.3720   21.4320 C.2   223  ALA223      0.2591
    126  O          4.9850  100.3160   20.6430 O.2   223  ALA223     -0.2718
    127  CB         5.5580  100.7590   23.4300 C.3   223  ALA223      0.0304
    128  N          4.9810   98.0960   21.0550 N.am  224  ILE224     -0.1980
    129  CA         5.0650   97.6830   19.6500 C.3   224  ILE224      0.1595
    130  C          4.5300   96.2660   19.4170 C.2   224  ILE224      0.2287
    131  O          5.1760   95.2770   19.7720 O.2   224  ILE224     -0.2864
    132  CB         6.5020   97.7920   19.0970 C.3   224  ILE224      0.0276
    133  CG1        7.5020   98.0030   20.2440 C.3   224  ILE224      0.0022
    134  CG2        6.5870   98.9240   18.0860 C.3   224  ILE224      0.0022
    135  CD1        8.8840   98.4410   19.7990 C.3   224  ILE224      0.0001
    136  N          6.7390   91.8470   19.0490 N.3   226  PHE226     -0.1227
    137  CA         8.1570   92.1020   19.2800 C.3   226  PHE226      0.1736
    138  C          8.3850   92.2500   20.7680 C.2   226  PHE226      0.2595
    139  O          7.8800   93.1880   21.3910 O.2   226  PHE226     -0.2718
    140  CB         8.6430   93.3640   18.5670 C.3   226  PHE226      0.0547
    141  CG        10.1030   93.6680   18.8040 C.ar  226  PHE226     -0.0202
    142  CD1       11.0930   92.8570   18.2570 C.ar  226  PHE226     -0.0042
    143  CD2       10.4860   94.7570   19.5770 C.ar  226  PHE226     -0.0042
    144  CE1       12.4380   93.1290   18.4750 C.ar  226  PHE226     -0.0003
    145  CE2       11.8300   95.0350   19.8000 C.ar  226  PHE226     -0.0003
    146  CZ        12.8050   94.2200   19.2490 C.ar  226  PHE226     -0.0000
    147  N          9.1590   91.3180   21.3110 N.am  227  ILE227     -0.1980
    148  CA         9.4040   91.1660   22.7390 C.3   227  ILE227      0.1595
    149  C          9.1260   89.7170   23.0880 C.2   227  ILE227      0.2287
    150  O          9.9640   89.0580   23.6870 O.2   227  ILE227     -0.2864
    151  CB         8.5690   92.1050   23.6440 C.3   227  ILE227      0.0276
    152  CG1        9.1460   92.1260   25.0650 C.3   227  ILE227      0.0022
    153  CG2        7.1000   91.6870   23.6810 C.3   227  ILE227      0.0022
    154  CD1       10.6010   92.5550   25.1410 C.3   227  ILE227      0.0001
    155  N         11.4570   88.5630   20.8780 N.3   230  ALA230     -0.1245
    156  CA        12.7400   88.9000   21.4970 C.3   230  ALA230      0.1562
    157  C         13.1070   87.9870   22.6850 C.2   230  ALA230      0.2260
    158  O         14.2710   87.6160   22.8540 O.2   230  ALA230     -0.2867
    159  CB        12.7500   90.3540   21.9170 C.3   230  ALA230      0.0290
@<TRIPOS>BOND
     1    59    60    1
     2    36    35    2
     3    62    61    2
     4    61    60    1
     5    35    34    1
     6    60    63    1
     7   134   132    1
     8   142   144   ar
     9   142   141   ar
    10    33    34    1
    11   144   146   ar
    12   140   141    1
    13   140   137    1
    14    34    37    1
    15    63    64    1
    16   141   143   ar
    17   136   137    1
    18   132   129    1
    19   132   133    1
    20   146   145   ar
    21   137   138    1
    22   130   129    1
    23   130   131    2
    24    71    72    1
    25   143   145   ar
    26   129   128    1
    27   135   133    1
    28    37    39    1
    29    37    38    1
    30    64    66   ar
    31    64    65   ar
    32    66    68   ar
    33   126   125    2
    34    72    73    1
    35    72    75    1
    36    73    74    2
    37   138   147   am
    38   138   139    2
    39   155   156    1
    40    75    76    1
    41   128   125   am
    42    65    67   ar
    43   147   148    1
    44   125   124    1
    45    68    69   ar
    46    32    29    1
    47   156   159    1
    48   156   157    1
    49    30    31    2
    50    30    29    1
    51    58    57    1
    52    56    57   ar
    53    56    54   ar
    54    29    28    1
    55    67    69   ar
    56    76    77    1
    57    57    55   ar
    58    69    70    1
    59    78    77    1
    60    54    52   ar
    61   157   158    2
    62   148   149    1
    63   148   151    1
    64   124   127    1
    65   124   123    1
    66   149   150    2
    67    79    80    1
    68    50    49    2
    69   121   120    2
    70    81    80    1
    71    81    82    2
    72   151   153    1
    73   151   152    1
    74    28    22   am
    75    83    80    1
    76    83    84    1
    77    55    53   ar
    78    52    53   ar
    79    52    51    1
    80    49    48    1
    81    84    85    1
    82    23    22    2
    83    22    21    1
    84    51    48    1
    85   120   119    1
    86   152   154    1
    87    97    96    1
    88    97    98    1
    89    48    47    1
    90   116   115    2
    91    85    86    1
    92    96    93    1
    93   119   122    1
    94   119   118    1
    95    26    25    2
    96    21    20    1
    97    21    24    1
    98    47    42   am
    99    86    87    1
   100    98    92    1
   101    45    44    1
   102   115   118   am
   103   115   114    1
   104    20    17   am
   105    25    24    1
   106    25    27   am
   107    93    92    1
   108    93    94    1
   109    92    90   am
   110    42    43    2
   111    42    41    1
   112   114   117    1
   113   114   113    1
   114    44    41    1
   115    44    46    1
   116    17    18    2
   117    17    16    1
   118    19    16    1
   119    90    89    1
   120    90    91    2
   121    89    88    1
   122    41    40    1
   123    94    99   am
   124    94    95    2
   125    16    15    1
   126   102   101    2
   127    99   100    1
   128   110   109    2
   129   101   100    1
   130   112   111    1
   131   100   103    1
   132   109   108    1
   133    15     9   am
   134   107   108    1
   135   108   111    1
   136    10     9    2
   137     9     8    1
   138   103   104    1
   139    13    12    1
   140     8    11    1
   141     8     7    1
   142   104   105    1
   143   104   106    1
   144    12    11    1
   145    12    14    1
   146     7     3   am
   147     3     4    2
   148     3     2    1
   149     2     1    1
   150     2     5    1
   151     6     5    1
