@<TRIPOS>MOLECULE
tmp/2op1A01.pdb
 154 148 0 0 0
SMALL
GASTEIGER

@<TRIPOS>ATOM
      1  N         46.1890   90.6530   42.5480 N.3    15  TYR15      -0.1241
      2  CA        44.7380   90.5070   42.4900 C.3    15  TYR15       0.1605
      3  C         44.2390   89.2230   43.1330 C.2    15  TYR15       0.2264
      4  O         43.1740   89.2170   43.7620 O.2    15  TYR15      -0.2867
      5  CB        44.2360   90.5530   41.0530 C.3    15  TYR15       0.0534
      6  CG        44.4920   91.8640   40.3750 C.ar   15  TYR15      -0.0201
      7  CD1       43.8400   93.0250   40.7800 C.ar   15  TYR15      -0.0009
      8  CD2       45.3820   91.9430   39.3300 C.ar   15  TYR15      -0.0009
      9  CE1       44.0830   94.2220   40.1570 C.ar   15  TYR15       0.0417
     10  CE2       45.6220   93.1190   38.7120 C.ar   15  TYR15       0.0417
     11  CZ        44.9800   94.2540   39.1180 C.ar   15  TYR15       0.1957
     12  OH        45.2620   95.4170   38.4510 O.3    15  TYR15      -0.2866
     13  N         46.5740   84.7520   36.3260 N.3   118  LEU118     -0.1231
     14  CA        47.9770   84.5580   36.0270 C.3   118  LEU118      0.1693
     15  C         48.3340   85.0500   34.6390 C.2   118  LEU118      0.2592
     16  O         47.5620   84.9100   33.6860 O.2   118  LEU118     -0.2718
     17  CB        48.3390   83.0830   36.1880 C.3   118  LEU118      0.0284
     18  CG        47.5670   82.1340   35.2790 C.3   118  LEU118      0.0019
     19  CD1       48.3730   81.8840   34.0220 C.3   118  LEU118      0.0001
     20  CD2       47.2800   80.8280   35.9990 C.3   118  LEU118      0.0001
     21  N         49.5070   85.6530   34.5410 N.am  119  ALA119     -0.1966
     22  CA        50.0350   86.0700   33.2580 C.3   119  ALA119      0.1728
     23  C         51.5480   85.9390   33.2920 C.2   119  ALA119      0.2616
     24  O         52.1790   86.1560   34.3280 O.2   119  ALA119     -0.2715
     25  CB        49.6200   87.5010   32.9450 C.3   119  ALA119      0.0334
     26  N         52.1210   85.5530   32.1600 N.am  120  ASN120     -0.1958
     27  CA        53.5620   85.5150   32.0160 C.3   120  ASN120      0.1819
     28  C         53.9360   85.6850   30.5590 C.2   120  ASN120      0.2621
     29  O         53.3380   85.0740   29.6810 O.2   120  ASN120     -0.2715
     30  CB        54.1330   84.2040   32.5610 C.3   120  ASN120      0.1195
     31  CG        55.5530   84.3580   33.0780 C.2   120  ASN120      0.2630
     32  OD1       56.2460   85.3310   32.7570 O.2   120  ASN120     -0.2716
     33  ND2       55.9930   83.3990   33.8930 N.am  120  ASN120     -0.0877
     34  N         54.9100   86.5480   30.3160 N.am  121  ALA121     -0.1977
     35  CA        55.4880   86.7240   28.9960 C.3   121  ALA121      0.1597
     36  C         56.9870   86.9110   29.1910 C.2   121  ALA121      0.2287
     37  O         57.4170   87.8900   29.8040 O.2   121  ALA121     -0.2864
     38  CB        54.8850   87.9380   28.3150 C.3   121  ALA121      0.0319
     39  N         58.1590   90.3290   27.8660 N.3   124  VAL124     -0.1245
     40  CA        57.2500   91.4420   28.1500 C.3   124  VAL124      0.1561
     41  C         57.9270   92.8090   28.0420 C.2   124  VAL124      0.2260
     42  O         57.2610   93.8310   27.8650 O.2   124  VAL124     -0.2867
     43  CB        56.5950   91.2960   29.5510 C.3   124  VAL124      0.0252
     44  CG1       57.6350   91.4430   30.6460 C.3   124  VAL124      0.0019
     45  CG2       55.4680   92.3130   29.7320 C.3   124  VAL124      0.0019
     46  N         43.4470   93.1290   30.7530 N.3   169  TYR169     -0.1241
     47  CA        43.9120   94.4990   30.7850 C.3   169  TYR169      0.1605
     48  C         43.6210   95.1510   29.4320 C.2   169  TYR169      0.2264
     49  O         43.6740   94.4960   28.3960 O.2   169  TYR169     -0.2867
     50  CB        45.4050   94.5550   31.1740 C.3   169  TYR169      0.0534
     51  CG        45.9740   95.9640   31.2380 C.ar  169  TYR169     -0.0201
     52  CD1       45.5020   96.8830   32.1660 C.ar  169  TYR169     -0.0009
     53  CD2       46.9840   96.3670   30.3680 C.ar  169  TYR169     -0.0009
     54  CE1       46.0020   98.1820   32.2190 C.ar  169  TYR169      0.0417
     55  CE2       47.5030   97.6600   30.4140 C.ar  169  TYR169      0.0417
     56  CZ        47.0090   98.5630   31.3420 C.ar  169  TYR169      0.1957
     57  OH        47.5200   99.8430   31.3810 O.3   169  TYR169     -0.2866
     58  N         48.8540  100.4620   24.5400 N.3   176  VAL176     -0.1245
     59  CA        49.6530  100.8150   25.7000 C.3   176  VAL176      0.1561
     60  C         51.1040  100.4580   25.3800 C.2   176  VAL176      0.2260
     61  O         51.5270   99.3120   25.5540 O.2   176  VAL176     -0.2867
     62  CB        49.1840  100.0700   26.9740 C.3   176  VAL176      0.0252
     63  CG1       50.0880  100.4010   28.1580 C.3   176  VAL176      0.0019
     64  CG2       47.7270  100.4080   27.2970 C.3   176  VAL176      0.0019
     65  N         54.7840   99.7290   25.8610 N.3   178  GLY178     -0.1210
     66  CA        55.4410   99.2480   27.0660 C.3   178  GLY178      0.1956
     67  C         54.8520   97.9540   27.6030 C.2   178  GLY178      0.2611
     68  O         55.5150   97.2260   28.3350 O.2   178  GLY178     -0.2717
     69  N         53.5990   97.6740   27.2500 N.am  179  TYR179     -0.1976
     70  CA        52.9770   96.3970   27.5860 C.3   179  TYR179      0.1639
     71  C         53.2850   95.4340   26.4410 C.2   179  TYR179      0.2290
     72  O         52.4170   95.1350   25.6210 O.2   179  TYR179     -0.2864
     73  CB        51.4720   96.5890   27.7610 C.3   179  TYR179      0.0560
     74  CG        50.7400   95.4780   28.4920 C.ar  179  TYR179     -0.0198
     75  CD1       50.8520   95.3260   29.8680 C.ar  179  TYR179     -0.0009
     76  CD2       49.9070   94.5990   27.8000 C.ar  179  TYR179     -0.0009
     77  CE1       50.1660   94.3160   30.5370 C.ar  179  TYR179      0.0417
     78  CE2       49.2220   93.5960   28.4520 C.ar  179  TYR179      0.0417
     79  CZ        49.3500   93.4560   29.8170 C.ar  179  TYR179      0.1957
     80  OH        48.6570   92.4470   30.4570 O.3   179  TYR179     -0.2866
     81  N         51.8720   90.2600   25.4480 N.3   183  MET183     -0.1245
     82  CA        50.9010   90.3130   26.5490 C.3   183  MET183      0.1570
     83  C         49.5910   90.9620   26.1060 C.2   183  MET183      0.2261
     84  O         48.5120   90.5130   26.4810 O.2   183  MET183     -0.2867
     85  CB        51.4740   91.0410   27.7740 C.3   183  MET183      0.0387
     86  CG        52.3000   90.1430   28.6700 C.3   183  MET183      0.0595
     87  SD        51.4130   88.6080   29.0710 S.3   183  MET183     -0.1393
     88  CE        49.9220   89.2480   29.8150 C.3   183  MET183      0.0692
     89  N         45.9980   89.0550   26.0080 N.3   187  LYS187     -0.1245
     90  CA        44.7950   89.5860   26.6360 C.3   187  LYS187      0.1561
     91  C         43.6230   89.6800   25.6520 C.2   187  LYS187      0.2260
     92  O         42.4730   89.4000   26.0050 O.2   187  LYS187     -0.2867
     93  CB        45.0910   90.9570   27.2530 C.3   187  LYS187      0.0271
     94  CG        46.0430   90.8930   28.4290 C.3   187  LYS187      0.0035
     95  CD        45.5870   89.8310   29.4440 C.3   187  LYS187      0.0206
     96  CE        46.2480   90.0340   30.8230 C.3   187  LYS187      0.1093
     97  NZ        45.9120   88.9350   31.8070 N.3   187  LYS187     -0.1314
     98  N         45.6680   99.5090   37.0850 N.3   216  PRO216     -0.2102
     99  CA        47.0000   99.1200   37.5640 C.3   216  PRO216      0.1504
    100  C         47.0590   98.9560   39.0850 C.2   216  PRO216      0.2575
    101  O         46.4360   99.7220   39.8300 O.2   216  PRO216     -0.2718
    102  CB        47.8910  100.2900   37.1350 C.3   216  PRO216      0.0282
    103  CG        46.9860  101.3020   36.4810 C.3   216  PRO216      0.0208
    104  CD        45.5760  100.9470   36.8130 C.3   216  PRO216      0.0893
    105  N         47.7990   97.9410   39.5170 N.am  217  LEU217     -0.1980
    106  CA        48.1150   97.6830   40.9180 C.3   217  LEU217      0.1596
    107  C         49.6180   97.4850   40.9590 C.2   217  LEU217      0.2287
    108  O         50.1630   96.7750   40.1090 O.2   217  LEU217     -0.2864
    109  CB        47.4900   96.3630   41.3610 C.3   217  LEU217      0.0297
    110  CG        46.3590   96.2620   42.3730 C.3   217  LEU217      0.0022
    111  CD1       46.2390   94.8060   42.7880 C.3   217  LEU217      0.0001
    112  CD2       46.6480   97.1290   43.5760 C.3   217  LEU217      0.0001
    113  N         52.0830   95.4010   41.7740 N.3   219  SER219     -0.1217
    114  CA        52.2250   94.0100   42.1890 C.3   219  SER219      0.1889
    115  C         53.5000   93.3870   41.6240 C.2   219  SER219      0.2288
    116  O         53.8730   92.2710   41.9950 O.2   219  SER219     -0.2866
    117  CB        51.0070   93.1900   41.7540 C.3   219  SER219      0.2089
    118  OG        50.9940   92.9970   40.3480 O.3   219  SER219     -0.2183
    119  N         57.0750  100.8180   34.4360 N.3   221  PHE221     -0.1227
    120  CA        55.8980  101.3250   33.7530 C.3   221  PHE221      0.1736
    121  C         54.6540  101.2730   34.6270 C.2   221  PHE221      0.2595
    122  O         53.7170  102.0420   34.4240 O.2   221  PHE221     -0.2718
    123  CB        55.6530  100.5210   32.4810 C.3   221  PHE221      0.0547
    124  CG        56.6110  100.8340   31.3670 C.ar  221  PHE221     -0.0202
    125  CD1       57.6690   99.9820   31.0820 C.ar  221  PHE221     -0.0042
    126  CD2       56.4490  101.9780   30.5950 C.ar  221  PHE221     -0.0042
    127  CE1       58.5500  100.2660   30.0510 C.ar  221  PHE221     -0.0003
    128  CE2       57.3270  102.2680   29.5620 C.ar  221  PHE221     -0.0003
    129  CZ        58.3790  101.4110   29.2910 C.ar  221  PHE221     -0.0000
    130  N         54.6420  100.3570   35.5900 N.am  222  ILE222     -0.1980
    131  CA        53.5080  100.2300   36.4930 C.3   222  ILE222      0.1595
    132  C         53.3550  101.5080   37.3050 C.2   222  ILE222      0.2287
    133  O         52.2380  101.9190   37.6320 O.2   222  ILE222     -0.2864
    134  CB        53.6530   99.0180   37.4430 C.3   222  ILE222      0.0276
    135  CG1       52.4200   98.8960   38.3380 C.3   222  ILE222      0.0022
    136  CG2       54.9210   99.1340   38.2870 C.3   222  ILE222      0.0022
    137  CD1       51.1230   98.7210   37.5660 C.3   222  ILE222      0.0001
    138  N         54.1610  104.4890   36.2300 N.3   224  TYR224     -0.1227
    139  CA        53.5370  105.4260   35.3050 C.3   224  TYR224      0.1736
    140  C         52.0300  105.2030   35.2520 C.2   224  TYR224      0.2595
    141  O         51.2480  106.1350   35.4500 O.2   224  TYR224     -0.2718
    142  CB        54.1280  105.2900   33.9000 C.3   224  TYR224      0.0548
    143  CG        53.4300  106.1470   32.8590 C.ar  224  TYR224     -0.0200
    144  CD1       53.0340  107.4480   33.1530 C.ar  224  TYR224     -0.0009
    145  CD2       53.1820  105.6630   31.5790 C.ar  224  TYR224     -0.0009
    146  CE1       52.4000  108.2400   32.2090 C.ar  224  TYR224      0.0417
    147  CE2       52.5510  106.4500   30.6240 C.ar  224  TYR224      0.0417
    148  CZ        52.1610  107.7390   30.9470 C.ar  224  TYR224      0.1957
    149  OH        51.5340  108.5310   30.0090 O.3   224  TYR224     -0.2866
    150  N         51.6380  103.9610   34.9840 N.am  225  ALA225     -0.1980
    151  CA        50.2330  103.6040   34.8240 C.3   225  ALA225      0.1597
    152  C         49.4080  104.0420   36.0250 C.2   225  ALA225      0.2287
    153  O         48.3530  104.6620   35.8750 O.2   225  ALA225     -0.2864
    154  CB        50.0990  102.1080   34.6090 C.3   225  ALA225      0.0319
@<TRIPOS>BOND
     1    58    59    1
     2    60    61    2
     3    60    59    1
     4    81    82    1
     5    72    71    2
     6    91    92    2
     7    91    90    1
     8    59    62    1
     9    65    66    1
    10    89    90    1
    11    83    84    2
    12    83    82    1
    13    71    70    1
    14    82    85    1
    15    90    93    1
    16    62    64    1
    17    62    63    1
    18    66    67    1
    19    69    70    1
    20    69    67   am
    21    93    94    1
    22    70    73    1
    23    67    68    2
    24    73    74    1
    25    85    86    1
    26    76    78   ar
    27    76    74   ar
    28    42    41    2
    29    39    40    1
    30    41    40    1
    31    40    43    1
    32    38    35    1
    33    49    48    2
    34    94    95    1
    35    78    79   ar
    36    74    75   ar
    37    86    87    1
    38    35    36    1
    39    35    34    1
    40    87    88    1
    41    36    37    2
    42   129   128   ar
    43   129   127   ar
    44    48    47    1
    45    95    96    1
    46    43    45    1
    47    43    44    1
    48   128   126   ar
    49    29    28    2
    50    79    80    1
    51    79    77   ar
    52    75    77   ar
    53   149   148    1
    54   127   125   ar
    55    34    28   am
    56    53    55   ar
    57    53    51   ar
    58    55    56   ar
    59    28    27    1
    60   126   124   ar
    61   147   148   ar
    62   147   145   ar
    63    46    47    1
    64    47    50    1
    65    96    97    1
    66   148   146   ar
    67   125   124   ar
    68    50    51    1
    69    51    52   ar
    70    56    57    1
    71    56    54   ar
    72   124   123    1
    73   145   143   ar
    74    27    26    1
    75    27    30    1
    76    26    23   am
    77    52    54   ar
    78   146   144   ar
    79   123   120    1
    80    30    31    1
    81    32    31    2
    82   143   144   ar
    83   143   142    1
    84    25    22    1
    85    31    33   am
    86    22    23    1
    87    22    21    1
    88    23    24    2
    89    16    15    2
    90   120   119    1
    91   120   121    1
    92   142   139    1
    93    19    18    1
    94   122   121    2
    95    21    15   am
    96   154   151    1
    97   121   130   am
    98    15    14    1
    99   151   150    1
   100   151   152    1
   101   150   140   am
   102   140   139    1
   103   140   141    2
   104    18    20    1
   105    18    17    1
   106   139   138    1
   107   130   131    1
   108   153   152    2
   109    14    17    1
   110    14    13    1
   111   103   104    1
   112   103   102    1
   113   131   132    1
   114   131   134    1
   115   104    98    1
   116    98    99    1
   117   102    99    1
   118   132   133    2
   119   134   136    1
   120   134   135    1
   121    99   100    1
   122   137   135    1
   123    12    11    1
   124    10    11   ar
   125    10     8   ar
   126   100   105   am
   127   100   101    2
   128    11     9   ar
   129     8     6   ar
   130   105   106    1
   131   108   107    2
   132     9     7   ar
   133   118   117    1
   134     6     7   ar
   135     6     5    1
   136   106   107    1
   137   106   109    1
   138     5     2    1
   139   109   110    1
   140   115   116    2
   141   115   114    1
   142   117   114    1
   143   113   114    1
   144   110   111    1
   145   110   112    1
   146     2     1    1
   147     2     3    1
   148     3     4    2
