@<TRIPOS>MOLECULE
tmp/2op3A00.pdb
 101 99 0 0 0
SMALL
GASTEIGER

@<TRIPOS>ATOM
      1  N         10.8100   43.0180    8.7170 N.3    19  GLN19      -0.1245
      2  CA        12.0200   43.4710    9.3900 C.3    19  GLN19       0.1566
      3  C         12.6660   44.6610    8.7170 C.2    19  GLN19       0.2260
      4  O         13.4620   45.3540    9.3420 O.2    19  GLN19      -0.2867
      5  CB        13.0350   42.3380    9.5570 C.3    19  GLN19       0.0367
      6  CG        13.6870   41.8920    8.3110 C.3    19  GLN19       0.0905
      7  CD        14.5520   40.6430    8.5270 C.2    19  GLN19       0.2608
      8  OE1       14.0630   39.5640    8.8720 O.2    19  GLN19      -0.2717
      9  NE2       15.8300   40.7850    8.2820 N.am   19  GLN19      -0.0878
     10  N         18.8030   43.6030   10.1910 N.3    23  GLY23      -0.1225
     11  CA        19.0450   42.1530   10.2820 C.3    23  GLY23       0.1811
     12  C         18.5770   41.5990   11.6120 C.2    23  GLY23       0.2280
     13  O         19.3590   41.0760   12.4090 O.2    23  GLY23      -0.2866
     14  N         16.1930   39.2560   11.9860 N.3    25  CYS25      -0.1221
     15  CA        15.4850   38.0140   11.8050 C.3    25  CYS25       0.1808
     16  C         15.5280   37.1410   13.0610 C.2    25  CYS25       0.2601
     17  O         14.5640   36.4840   13.4120 O.2    25  CYS25      -0.2717
     18  CB        16.1020   37.2550   10.6340 C.3    25  CYS25       0.0970
     19  SG        17.8920   37.0240   10.7760 S.3    25  CYS25      -0.0800
     20  N         16.6830   37.1130   13.7010 N.am   26  TRP26      -0.1976
     21  CA        16.8880   36.3280   14.9050 C.3    26  TRP26       0.1640
     22  C         15.9070   36.7440   15.9990 C.2    26  TRP26       0.2290
     23  O         15.3840   35.8960   16.7280 O.2    26  TRP26      -0.2864
     24  CB        18.3400   36.5010   15.3800 C.3    26  TRP26       0.0576
     25  CG        18.7060   37.9270   15.7030 C.ar   26  TRP26       0.0006
     26  CD1       19.0960   38.8810   14.8260 C.ar   26  TRP26       0.0946
     27  CD2       18.6870   38.5540   16.9940 C.ar   26  TRP26       0.0152
     28  NE1       19.3230   40.0560   15.4750 N.ar   26  TRP26      -0.2442
     29  CE2       19.0860   39.8910   16.8120 C.ar   26  TRP26       0.0810
     30  CE3       18.3780   38.1130   18.2810 C.ar   26  TRP26       0.0012
     31  CZ2       19.2010   40.7990   17.8750 C.ar   26  TRP26       0.0191
     32  CZ3       18.4710   39.0150   19.3380 C.ar   26  TRP26       0.0001
     33  CH2       18.9150   40.3380   19.1250 C.ar   26  TRP26       0.0015
     34  N         22.5850   43.9600   13.0630 N.3    67  ASN67      -0.1225
     35  CA        23.6140   43.2070   12.3900 C.3    67  ASN67       0.1785
     36  C         23.7210   41.7560   12.8490 C.2    67  ASN67       0.2598
     37  O         24.7740   41.1250   12.7220 O.2    67  ASN67      -0.2718
     38  CB        24.9300   43.9410   12.5650 C.3    67  ASN67       0.1169
     39  CG        25.0090   45.1410   11.6560 C.2    67  ASN67       0.2627
     40  OD1       25.1030   44.9880   10.4360 O.2    67  ASN67      -0.2716
     41  ND2       24.9080   46.3240   12.2270 N.am   67  ASN67      -0.0877
     42  N         22.6310   41.2120   13.3690 N.am   68  GLY68      -0.1942
     43  CA        22.5270   39.7920   13.5980 C.3    68  GLY68       0.2014
     44  C         22.5680   39.3970   15.0500 C.2    68  GLY68       0.2639
     45  O         22.9230   40.1730   15.9060 O.2    68  GLY68      -0.2714
     46  N         22.1930   38.1620   15.2960 N.am   69  GLY69      -0.1939
     47  CA        22.1390   37.6390   16.6360 C.3    69  GLY69       0.2014
     48  C         21.7170   36.2050   16.6370 C.2    69  GLY69       0.2639
     49  O         21.5780   35.5780   15.5640 O.2    69  GLY69      -0.2714
     50  N         21.5160   35.6930   17.8440 N.am   70  PHE70      -0.1959
     51  CA        21.1810   34.3000   18.0750 C.3    70  PHE70       0.1771
     52  C         19.8190   34.1960   18.7440 C.2    70  PHE70       0.2619
     53  O         19.5510   34.9070   19.7250 O.2    70  PHE70      -0.2715
     54  CB        22.1520   33.6690   19.0780 C.3    70  PHE70       0.0574
     55  CG        23.5970   33.6380   18.6310 C.ar   70  PHE70      -0.0200
     56  CD1       24.0580   32.6010   17.8390 C.ar   70  PHE70      -0.0042
     57  CD2       24.5000   34.5890   19.0800 C.ar   70  PHE70      -0.0042
     58  CE1       25.3900   32.5560   17.4570 C.ar   70  PHE70      -0.0003
     59  CE2       25.8430   34.5260   18.7240 C.ar   70  PHE70      -0.0003
     60  CZ        26.2760   33.5220   17.9080 C.ar   70  PHE70      -0.0000
     61  N         18.9910   33.2570   18.3050 N.am   71  MET71      -0.1977
     62  CA        17.7310   33.0320   18.9750 C.3    71  MET71       0.1605
     63  C         17.9230   32.5100   20.3660 C.2    71  MET71       0.2287
     64  O         17.2290   32.9120   21.2910 O.2    71  MET71      -0.2864
     65  CB        16.8300   32.0780   18.2040 C.3    71  MET71       0.0413
     66  CG        16.3130   32.6530   16.9050 C.3    71  MET71       0.0598
     67  SD        17.4440   32.6650   15.5130 S.3    71  MET71      -0.1393
     68  CE        17.2680   30.9710   15.0050 C.3    71  MET71       0.0692
     69  N         17.6350   28.3560   12.0070 N.3   137  GLY137     -0.1225
     70  CA        18.3090   29.0820   10.9530 C.3   137  GLY137      0.1811
     71  C         18.1960   28.3310    9.6520 C.2   137  GLY137      0.2280
     72  O         18.1130   27.0940    9.6200 O.2   137  GLY137     -0.2866
     73  N         23.8730   28.2760    7.7570 N.3   162  VAL162     -0.1231
     74  CA        22.6520   29.0880    7.9310 C.3   162  VAL162      0.1692
     75  C         22.9790   30.5540    8.1260 C.2   162  VAL162      0.2592
     76  O         24.0120   30.8960    8.6860 O.2   162  VAL162     -0.2718
     77  CB        21.7750   28.5640    9.0580 C.3   162  VAL162      0.0266
     78  CG1       21.4220   27.1070    8.7580 C.3   162  VAL162      0.0020
     79  CG2       22.4260   28.7500   10.4340 C.3   162  VAL162      0.0020
     80  N         22.1170   31.4180    7.6150 N.am  163  ASN163     -0.1960
     81  CA        22.3590   32.8630    7.6740 C.3   163  ASN163      0.1819
     82  C         21.1320   33.6870    8.0100 C.2   163  ASN163      0.2621
     83  O         21.2210   34.9120    8.0210 O.2   163  ASN163     -0.2715
     84  CB        22.9430   33.3520    6.3610 C.3   163  ASN163      0.1195
     85  CG        21.8970   33.5340    5.2710 C.2   163  ASN163      0.2630
     86  OD1       21.0000   32.7550    5.1490 O.2   163  ASN163     -0.2716
     87  ND2       22.0180   34.6170    4.4720 N.am  163  ASN163     -0.0877
     88  N         20.0120   33.0320    8.2700 N.am  164  HIS164     -0.1959
     89  CA        18.7590   33.7310    8.4640 C.3   164  HIS164      0.1787
     90  C         17.8870   32.9940    9.4640 C.2   164  HIS164      0.2620
     91  O         17.6400   31.8040    9.3070 O.2   164  HIS164     -0.2715
     92  CB        18.0980   33.7750    7.0950 C.3   164  HIS164      0.0785
     93  CG        16.8360   34.5510    7.0410 C.ar  164  HIS164      0.0821
     94  ND1       16.7310   35.8380    7.5200 N.ar  164  HIS164     -0.2267
     95  CD2       15.6160   34.2250    6.5560 C.ar  164  HIS164      0.1154
     96  CE1       15.4920   36.2650    7.3410 C.ar  164  HIS164      0.1986
     97  NE2       14.7970   35.3110    6.7560 N.ar  164  HIS164     -0.2212
     98  N         17.4260   33.6960   10.4870 N.am  165  GLY165     -0.1954
     99  CA        16.6160   33.1170   11.5230 C.3   165  GLY165      0.1869
    100  C         15.1720   33.1700   11.0920 C.2   165  GLY165      0.2309
    101  O         14.6800   34.2470   10.7260 O.2   165  GLY165     -0.2863
@<TRIPOS>BOND
     1    87    85   am
     2    86    85    2
     3    85    84    1
     4    84    81    1
     5    95    97   ar
     6    95    93   ar
     7    97    96   ar
     8    93    92    1
     9    93    94   ar
    10    92    89    1
    11    96    94   ar
    12    80    81    1
    13    80    75   am
    14    81    82    1
    15    73    74    1
    16    74    75    1
    17    74    77    1
    18    82    83    2
    19    82    88   am
    20    75    76    2
    21    88    89    1
    22     9     7   am
    23     6     7    1
    24     6     5    1
    25    89    90    1
    26     7     8    2
    27     1     2    1
    28     3     4    2
    29     3     2    1
    30    78    77    1
    31    77    79    1
    32    91    90    2
    33     2     5    1
    34    90    98   am
    35    72    71    2
    36    71    70    1
    37    10    11    1
    38    11    12    1
    39    40    39    2
    40    98    99    1
    41    18    19    1
    42    18    15    1
    43   101   100    2
    44    70    69    1
    45   100    99    1
    46    12    13    2
    47    39    41   am
    48    39    38    1
    49    15    14    1
    50    15    16    1
    51    35    38    1
    52    35    36    1
    53    35    34    1
    54    37    36    2
    55    36    42   am
    56    16    17    2
    57    16    20   am
    58    42    43    1
    59    43    44    1
    60    20    21    1
    61    26    28   ar
    62    26    25   ar
    63    21    24    1
    64    21    22    1
    65    68    67    1
    66    44    46   am
    67    44    45    2
    68    46    47    1
    69    24    25    1
    70    28    29   ar
    71    67    66    1
    72    49    48    2
    73    25    27   ar
    74    22    23    2
    75    47    48    1
    76    48    50   am
    77    29    27   ar
    78    29    31   ar
    79    66    65    1
    80    27    30   ar
    81    58    56   ar
    82    58    60   ar
    83    56    55   ar
    84    50    51    1
    85    31    33   ar
    86    60    59   ar
    87    51    52    1
    88    51    54    1
    89    65    62    1
    90    30    32   ar
    91    61    52   am
    92    61    62    1
    93    55    54    1
    94    55    57   ar
    95    59    57   ar
    96    52    53    2
    97    62    63    1
    98    33    32   ar
    99    63    64    2
