@<TRIPOS>MOLECULE
tmp/2op9A00.pdb
 165 162 0 0 0
SMALL
GASTEIGER

@<TRIPOS>ATOM
      1  N         -3.5420   34.8790   83.5790 N.3    26  THR26      -0.1203
      2  CA        -3.7620   34.9310   82.1360 C.3    26  THR26       0.1994
      3  C         -3.4760   36.3510   81.6730 C.2    26  THR26       0.2619
      4  O         -4.0450   37.2920   82.2180 O.2    26  THR26      -0.2717
      5  CB        -5.2110   34.5200   81.7470 C.3    26  THR26       0.1784
      6  OG1       -5.5160   33.2190   82.2680 O.3    26  THR26      -0.2211
      7  CG2       -5.3950   34.5130   80.2270 C.3    26  THR26       0.0376
      8  N         -2.5930   36.4850   80.6780 N.am   27  THR27      -0.1938
      9  CA        -2.3330   37.7690   80.0390 C.3    27  THR27       0.2028
     10  C         -2.5760   37.6720   78.5390 C.2    27  THR27       0.2642
     11  O         -2.2140   36.7020   77.8840 O.2    27  THR27      -0.2714
     12  CB        -0.9050   38.3040   80.2940 C.3    27  THR27       0.1808
     13  OG1       -0.6760   38.4000   81.7060 O.3    27  THR27      -0.2208
     14  CG2       -0.7490   39.6900   79.7030 C.3    27  THR27       0.0379
     15  N         -3.2280   38.6820   78.0000 N.am   28  LEU28      -0.1977
     16  CA        -3.4440   38.7680   76.5680 C.3    28  LEU28       0.1596
     17  C         -3.5280   40.2640   76.1810 C.2    28  LEU28       0.2287
     18  O         -3.1380   41.1630   76.9880 O.2    28  LEU28      -0.2864
     19  CB        -4.6760   37.9530   76.1620 C.3    28  LEU28       0.0297
     20  CG        -5.9960   38.0850   76.9270 C.3    28  LEU28       0.0022
     21  CD1       -6.4650   39.5510   77.0380 C.3    28  LEU28       0.0001
     22  CD2       -7.0970   37.2190   76.2340 C.3    28  LEU28       0.0001
     23  N        -12.3500   35.2620   77.6880 N.3    42  HIS42      -0.1241
     24  CA       -11.7010   34.1030   78.3190 C.3    42  HIS42       0.1621
     25  C        -10.4220   34.4770   79.0780 C.2    42  HIS42       0.2264
     26  O         -9.8130   33.6260   79.7260 O.2    42  HIS42      -0.2867
     27  CB       -11.4790   32.9640   77.3080 C.3    42  HIS42       0.0745
     28  CG       -10.4200   33.2340   76.2920 C.ar   42  HIS42       0.0817
     29  ND1      -10.7130   33.6200   75.0020 N.ar   42  HIS42      -0.2268
     30  CD2       -9.0720   33.1310   76.3600 C.ar   42  HIS42       0.1154
     31  CE1       -9.5840   33.7800   74.3300 C.ar   42  HIS42       0.1986
     32  NE2       -8.5730   33.4960   75.1320 N.ar   42  HIS42      -0.2212
     33  N        -12.3490   26.3080   81.2080 N.3    50  MET50      -0.1245
     34  CA       -12.4490   26.4540   79.7600 C.3    50  MET50       0.1570
     35  C        -13.0410   25.2870   78.9590 C.2    50  MET50       0.2261
     36  O        -13.7250   25.5150   77.9640 O.2    50  MET50      -0.2867
     37  CB       -11.0590   26.7360   79.1700 C.3    50  MET50       0.0387
     38  CG       -10.5870   28.1710   79.2930 C.3    50  MET50       0.0595
     39  SD       -11.6170   29.3580   78.4190 S.3    50  MET50      -0.1393
     40  CE       -11.4340   28.8500   76.7080 C.3    50  MET50       0.0692
     41  N         -0.2770   33.2950   64.5430 N.3   141  PHE141     -0.1227
     42  CA        -0.5390   33.7180   65.9110 C.3   141  PHE141      0.1736
     43  C          0.0860   32.7080   66.8400 C.2   141  PHE141      0.2595
     44  O         -0.2870   31.5290   66.8160 O.2   141  PHE141     -0.2718
     45  CB        -2.0230   33.7220   66.2120 C.3   141  PHE141      0.0547
     46  CG        -2.7990   34.7760   65.5140 C.ar  141  PHE141     -0.0202
     47  CD1       -3.6770   34.4430   64.5020 C.ar  141  PHE141     -0.0042
     48  CD2       -2.7230   36.0990   65.9190 C.ar  141  PHE141     -0.0042
     49  CE1       -4.4360   35.4110   63.8680 C.ar  141  PHE141     -0.0003
     50  CE2       -3.5010   37.0810   65.2870 C.ar  141  PHE141     -0.0003
     51  CZ        -4.3560   36.7260   64.2760 C.ar  141  PHE141     -0.0000
     52  N          1.0530   33.1530   67.6350 N.am  142  LEU142     -0.1966
     53  CA         1.6610   32.2860   68.6260 C.3   142  LEU142      0.1728
     54  C          0.9300   32.4620   69.9390 C.2   142  LEU142      0.2616
     55  O          0.1130   33.3940   70.0770 O.2   142  LEU142     -0.2715
     56  CB         3.1380   32.6200   68.7750 C.3   142  LEU142      0.0311
     57  CG         3.8620   32.5590   67.4240 C.3   142  LEU142      0.0022
     58  CD1        5.2950   32.9560   67.5910 C.3   142  LEU142      0.0001
     59  CD2        3.7470   31.1620   66.7720 C.3   142  LEU142      0.0001
     60  N          1.2010   31.5670   70.8960 N.am  143  ASN143     -0.1958
     61  CA         0.6200   31.6800   72.2460 C.3   143  ASN143      0.1819
     62  C          0.7890   33.1300   72.7430 C.2   143  ASN143      0.2622
     63  O          1.8870   33.7020   72.6360 O.2   143  ASN143     -0.2715
     64  CB         1.2880   30.6910   73.2490 C.3   143  ASN143      0.1195
     65  CG         0.7510   29.2160   73.1320 C.2   143  ASN143      0.2630
     66  OD1        0.2520   28.7900   72.0830 O.2   143  ASN143     -0.2716
     67  ND2        0.8720   28.4520   74.2200 N.am  143  ASN143     -0.0877
     68  N         -0.2790   33.7140   73.2910 N.am  144  GLY144     -0.1940
     69  CA        -0.2660   35.0980   73.8350 C.3   144  GLY144      0.2014
     70  C         -0.6950   36.1950   72.8620 C.2   144  GLY144      0.2640
     71  O         -0.7150   37.3770   73.2130 O.2   144  GLY144     -0.2714
     72  N         -1.0170   35.7930   71.6400 N.am  145  SER145     -0.1935
     73  CA        -1.4920   36.7230   70.6070 C.3   145  SER145      0.2055
     74  C         -3.0110   37.0230   70.6630 C.2   145  SER145      0.2643
     75  O         -3.4970   37.8700   69.8990 O.2   145  SER145     -0.2714
     76  CB        -1.1430   36.1740   69.2320 C.3   145  SER145      0.2130
     77  OG        -1.9260   35.0120   68.9740 O.3   145  SER145     -0.2179
     78  N         -3.7630   36.3540   71.5450 N.am  146  CYS146     -0.1967
     79  CA        -5.2000   36.6450   71.6610 C.3   146  CYS146      0.1712
     80  C         -5.4140   38.1120   71.9780 C.2   146  CYS146      0.2296
     81  O         -4.6180   38.7370   72.6970 O.2   146  CYS146     -0.2864
     82  CB        -5.9190   35.7700   72.7090 C.3   146  CYS146      0.0983
     83  SG        -5.9180   34.0530   72.2480 S.3   146  CYS146     -0.0798
     84  N         -8.7440   38.4290   67.6940 N.3   164  HIS164     -0.1226
     85  CA        -8.2890   37.0330   67.7040 C.3   164  HIS164      0.1752
     86  C         -8.6320   36.3270   69.0160 C.2   164  HIS164      0.2596
     87  O         -8.3340   36.8470   70.0980 O.2   164  HIS164     -0.2718
     88  CB        -6.7960   36.9330   67.4280 C.3   164  HIS164      0.0759
     89  CG        -6.3440   35.5260   67.3470 C.ar  164  HIS164      0.0818
     90  ND1       -6.9920   34.6030   66.5500 N.ar  164  HIS164     -0.2268
     91  CD2       -5.4000   34.8480   68.0330 C.ar  164  HIS164      0.1154
     92  CE1       -6.4210   33.4210   66.7200 C.ar  164  HIS164      0.1986
     93  NE2       -5.4690   33.5400   67.6370 N.ar  164  HIS164     -0.2212
     94  N         -9.2170   35.1310   68.9410 N.am  165  HIS165     -0.1961
     95  CA        -9.5250   34.3360   70.1370 C.3   165  HIS165      0.1787
     96  C         -8.8570   32.9800   70.2300 C.2   165  HIS165      0.2620
     97  O         -8.5060   32.5820   71.3470 O.2   165  HIS165     -0.2715
     98  CB       -11.0430   34.0730   70.2510 C.3   165  HIS165      0.0785
     99  CG       -11.8360   35.2520   70.7470 C.ar  165  HIS165      0.0821
    100  ND1      -11.9370   36.4460   70.0560 N.ar  165  HIS165     -0.2267
    101  CD2      -12.5850   35.3990   71.8650 C.ar  165  HIS165      0.1154
    102  CE1      -12.6960   37.2840   70.7460 C.ar  165  HIS165      0.1986
    103  NE2      -13.1220   36.6600   71.8320 N.ar  165  HIS165     -0.2212
    104  N         -8.8160   32.1950   69.1420 N.am  166  MET166     -0.1963
    105  CA        -8.3590   30.7990   69.2720 C.3   166  MET166      0.1736
    106  C         -7.7720   30.1990   68.0260 C.2   166  MET166      0.2616
    107  O         -8.0020   30.6880   66.8980 O.2   166  MET166     -0.2715
    108  CB        -9.5070   29.9120   69.7350 C.3   166  MET166      0.0427
    109  CG       -10.7070   30.0330   68.8710 C.3   166  MET166      0.0599
    110  SD       -12.1160   29.1770   69.5920 S.3   166  MET166     -0.1393
    111  CE       -13.2750   29.5800   68.3170 C.3   166  MET166      0.0692
    112  N         -7.0210   29.1210   68.2440 N.am  167  GLU167     -0.1963
    113  CA        -6.5450   28.2930   67.1510 C.3   167  GLU167      0.1733
    114  C         -7.3050   26.9630   67.1090 C.2   167  GLU167      0.2616
    115  O         -7.4710   26.2990   68.1190 O.2   167  GLU167     -0.2715
    116  CB        -5.0380   28.0570   67.2300 C.3   167  GLU167      0.0429
    117  CG        -4.5200   27.1470   66.1070 C.3   167  GLU167      0.1163
    118  CD        -3.0010   27.0210   66.0810 C.2   167  GLU167      0.3649
    119  OE1       -2.5100   25.8720   66.0530 O.co2 167  GLU167     -0.2457
    120  OE2       -2.3040   28.0610   66.0710 O.co2 167  GLU167     -0.2457
    121  N         -7.7700   26.6000   65.9310 N.am  168  LEU168     -0.1977
    122  CA        -8.5070   25.3430   65.7320 C.3   168  LEU168      0.1596
    123  C         -7.4990   24.2230   65.4680 C.2   168  LEU168      0.2287
    124  O         -6.3550   24.5170   65.1420 O.2   168  LEU168     -0.2864
    125  CB        -9.4560   25.5250   64.5520 C.3   168  LEU168      0.0297
    126  CG       -10.6820   26.4340   64.7770 C.3   168  LEU168      0.0022
    127  CD1      -11.3510   26.7310   63.4670 C.3   168  LEU168      0.0001
    128  CD2      -11.7160   25.8080   65.7220 C.3   168  LEU168      0.0001
    129  N        -16.1550   30.0050   72.5310 N.3   188  ASP188     -0.1225
    130  CA       -14.9280   30.1720   73.3020 C.3   188  ASP188      0.1805
    131  C        -14.9590   29.2130   74.4850 C.2   188  ASP188      0.2598
    132  O        -15.0840   29.6200   75.6570 O.2   188  ASP188     -0.2718
    133  CB       -14.6540   31.6340   73.7370 C.3   188  ASP188      0.1424
    134  CG       -15.8780   32.3450   74.3230 C.2   188  ASP188      0.3668
    135  OD1      -16.9930   31.7590   74.3600 O.co2 188  ASP188     -0.2456
    136  OD2      -15.7110   33.5220   74.7090 O.co2 188  ASP188     -0.2456
    137  N        -14.8740   27.9290   74.1440 N.am  189  ARG189     -0.1966
    138  CA       -14.7180   26.8650   75.1310 C.3   189  ARG189      0.1729
    139  C        -14.0380   25.6780   74.4950 C.2   189  ARG189      0.2616
    140  O        -13.9840   25.5710   73.2730 O.2   189  ARG189     -0.2715
    141  CB       -16.0540   26.4560   75.7190 C.3   189  ARG189      0.0348
    142  CG       -17.1550   26.4020   74.7180 C.3   189  ARG189      0.0492
    143  CD       -18.5140   26.4000   75.3790 C.3   189  ARG189      0.2205
    144  NE       -19.0060   25.0450   75.5970 N.pl3 189  ARG189     -0.0865
    145  CZ       -19.9540   24.4450   74.8730 C.cat 189  ARG189      0.5346
    146  NH1      -20.3230   23.1990   75.1910 N.pl3 189  ARG189      0.1354
    147  NH2      -20.5620   25.0720   73.8570 N.pl3 189  ARG189      0.1354
    148  N        -13.5260   24.7910   75.3430 N.am  190  GLN190     -0.1977
    149  CA       -12.7810   23.6100   74.9030 C.3   190  GLN190      0.1601
    150  C        -13.7420   22.5200   74.4610 C.2   190  GLN190      0.2287
    151  O        -14.2890   21.7890   75.2840 O.2   190  GLN190     -0.2864
    152  CB       -11.9020   23.0880   76.0430 C.3   190  GLN190      0.0394
    153  CG       -10.7770   22.1580   75.6130 C.3   190  GLN190      0.0908
    154  CD        -9.4640   22.8950   75.4660 C.2   190  GLN190      0.2608
    155  OE1       -9.1960   23.4990   74.4290 O.2   190  GLN190     -0.2717
    156  NE2       -8.6380   22.8570   76.5160 N.am  190  GLN190     -0.0878
    157  N        -14.6630   21.2920   68.1520 N.3   193  GLN193     -0.1245
    158  CA       -15.1340   22.0530   67.0050 C.3   193  GLN193      0.1566
    159  C        -14.0370   22.0740   65.9550 C.2   193  GLN193      0.2260
    160  O        -12.8650   21.9810   66.2920 O.2   193  GLN193     -0.2867
    161  CB       -15.5350   23.4680   67.4340 C.3   193  GLN193      0.0367
    162  CG       -14.4610   24.2320   68.1570 C.3   193  GLN193      0.0905
    163  CD       -15.0140   25.4090   68.9510 C.2   193  GLN193      0.2608
    164  OE1      -15.8310   26.1770   68.4490 O.2   193  GLN193     -0.2717
    165  NE2      -14.5520   25.5590   70.1850 N.am  193  GLN193     -0.0878
@<TRIPOS>BOND
     1   127   126    1
     2    49    51   ar
     3    49    47   ar
     4    51    50   ar
     5    47    46   ar
     6    41    42    1
     7   125   126    1
     8   125   122    1
     9   126   128    1
    10   124   123    2
    11    50    48   ar
    12   123   122    1
    13    46    48   ar
    14    46    45    1
    15   122   121    1
    16    42    45    1
    17    42    43    1
    18   121   114   am
    19   159   160    2
    20   159   158    1
    21   119   118   ar
    22   120   118   ar
    23   118   117    1
    24   117   116    1
    25    90    92   ar
    26    90    89   ar
    27    92    93   ar
    28    59    57    1
    29    44    43    2
    30    43    52   am
    31   107   106    2
    32   158   161    1
    33   158   157    1
    34   114   113    1
    35   114   115    2
    36   113   116    1
    37   113   112    1
    38    89    88    1
    39    89    91   ar
    40    57    58    1
    41    57    56    1
    42    88    85    1
    43   161   162    1
    44    52    53    1
    45    93    91   ar
    46    84    85    1
    47    85    86    1
    48   106   112   am
    49   106   105    1
    50   162   163    1
    51   111   110    1
    52   164   163    2
    53    53    56    1
    54    53    54    1
    55   109   110    1
    56   109   108    1
    57    94    86   am
    58    94    95    1
    59   163   165   am
    60    77    76    1
    61    86    87    2
    62   104   105    1
    63   104    96   am
    64    76    73    1
    65   105   108    1
    66    75    74    2
    67    54    55    2
    68    54    60   am
    69   100   102   ar
    70   100    99   ar
    71    95    96    1
    72    95    98    1
    73    96    97    2
    74    98    99    1
    75    73    74    1
    76    73    72    1
    77    74    78   am
    78   102   103   ar
    79    99   101   ar
    80    60    61    1
    81    78    79    1
    82    72    70   am
    83    79    80    1
    84    79    82    1
    85   103   101   ar
    86    80    81    2
    87    66    65    2
    88    61    62    1
    89    61    64    1
    90    83    82    1
    91   129   130    1
    92    63    62    2
    93    62    68   am
    94    70    71    2
    95    70    69    1
    96    65    64    1
    97    65    67   am
    98   140   139    2
    99    68    69    1
   100   130   133    1
   101   130   131    1
   102   133   134    1
   103   147   145    1
   104   137   131   am
   105   137   138    1
   106   134   135   ar
   107   134   136   ar
   108    31    29   ar
   109    31    32   ar
   110   155   154    2
   111   150   149    1
   112   150   151    2
   113   131   132    2
   114   139   138    1
   115   139   148   am
   116   142   143    1
   117   142   141    1
   118   145   146    1
   119   145   144    2
   120   149   148    1
   121   149   152    1
   122    29    28   ar
   123   138   141    1
   124    32    30   ar
   125   143   144    1
   126   154   153    1
   127   154   156   am
   128   153   152    1
   129    19    16    1
   130    19    20    1
   131    17    16    1
   132    17    18    2
   133    22    20    1
   134    28    30   ar
   135    28    27    1
   136    16    15    1
   137    40    39    1
   138    20    21    1
   139    27    24    1
   140    23    24    1
   141    11    10    2
   142    36    35    2
   143    15    10   am
   144    24    25    1
   145    39    38    1
   146    10     9    1
   147    35    34    1
   148    25    26    2
   149    37    38    1
   150    37    34    1
   151    14    12    1
   152    34    33    1
   153     9    12    1
   154     9     8    1
   155     7     5    1
   156    12    13    1
   157     8     3   am
   158     3     2    1
   159     3     4    2
   160     5     2    1
   161     5     6    1
   162     2     1    1
