@<TRIPOS>MOLECULE
tmp/2opbA00.pdb
 187 175 0 0 0
SMALL
GASTEIGER

@<TRIPOS>ATOM
      1  N         38.3020   48.8780   16.2400 N.3    12  TYR12      -0.1241
      2  CA        36.9260   48.5390   16.5620 C.3    12  TYR12       0.1605
      3  C         36.1560   48.3730   15.2490 C.2    12  TYR12       0.2264
      4  O         35.4430   47.3880   15.0420 O.2    12  TYR12      -0.2867
      5  CB        36.2770   49.6510   17.3830 C.3    12  TYR12       0.0534
      6  CG        34.8060   49.4220   17.6050 C.ar   12  TYR12      -0.0201
      7  CD1       34.3620   48.4430   18.4920 C.ar   12  TYR12      -0.0009
      8  CD2       33.8540   50.1720   16.9200 C.ar   12  TYR12      -0.0009
      9  CE1       33.0060   48.2170   18.6950 C.ar   12  TYR12       0.0417
     10  CE2       32.4930   49.9570   17.1160 C.ar   12  TYR12       0.0417
     11  CZ        32.0800   48.9820   18.0070 C.ar   12  TYR12       0.1957
     12  OH        30.7460   48.7930   18.2310 O.3    12  TYR12      -0.2866
     13  N         34.4840   44.9580   13.4720 N.3    16  ASN16      -0.1225
     14  CA        33.0520   44.8030   13.2690 C.3    16  ASN16       0.1785
     15  C         32.3970   45.3000   11.9720 C.2    16  ASN16       0.2597
     16  O         31.3250   44.8190   11.6060 O.2    16  ASN16      -0.2718
     17  CB        32.3300   45.4270   14.4750 C.3    16  ASN16       0.1169
     18  CG        32.8060   44.8590   15.7990 C.2    16  ASN16       0.2627
     19  OD1       32.4880   43.7250   16.1530 O.2    16  ASN16      -0.2716
     20  ND2       33.5830   45.6410   16.5290 N.am   16  ASN16      -0.0877
     21  N         33.0100   46.2410   11.2670 N.am   17  TYR17      -0.1976
     22  CA        32.3680   46.7420   10.0640 C.3    17  TYR17       0.1639
     23  C         33.0660   46.4780    8.7540 C.2    17  TYR17       0.2290
     24  O         32.6450   46.9780    7.7180 O.2    17  TYR17      -0.2864
     25  CB        32.0670   48.2210   10.2210 C.3    17  TYR17       0.0560
     26  CG        31.2000   48.4620   11.4140 C.ar   17  TYR17      -0.0198
     27  CD1       31.7550   48.6850   12.6770 C.ar   17  TYR17      -0.0009
     28  CD2       29.8130   48.3920   11.3040 C.ar   17  TYR17      -0.0009
     29  CE1       30.9430   48.8330   13.7980 C.ar   17  TYR17       0.0417
     30  CE2       28.9910   48.5330   12.4190 C.ar   17  TYR17       0.0417
     31  CZ        29.5570   48.7550   13.6550 C.ar   17  TYR17       0.1957
     32  OH        28.7300   48.9180   14.7350 O.3    17  TYR17      -0.2866
     33  N         31.6450   40.5960    8.8290 N.3    21  ARG21      -0.1245
     34  CA        30.4490   41.2240    9.3740 C.3    21  ARG21       0.1563
     35  C         30.0430   42.4290    8.5360 C.2    21  ARG21       0.2260
     36  O         28.8840   42.8390    8.5350 O.2    21  ARG21      -0.2867
     37  CB        30.6900   41.6500   10.8230 C.3    21  ARG21       0.0307
     38  CG        30.8770   40.4830   11.7640 C.3    21  ARG21       0.0489
     39  CD        31.0820   40.9590   13.1700 C.3    21  ARG21       0.2205
     40  NE        31.2510   39.8330   14.0840 N.pl3  21  ARG21      -0.0865
     41  CZ        31.3880   39.9610   15.4000 C.cat  21  ARG21       0.5346
     42  NH1       31.3740   41.1690   15.9470 N.pl3  21  ARG21       0.1354
     43  NH2       31.5370   38.8870   16.1660 N.pl3  21  ARG21       0.1354
     44  N         24.3880   40.0980    9.0640 N.3    30  VAL30      -0.1231
     45  CA        23.8780   40.9370   10.1440 C.3    30  VAL30       0.1692
     46  C         23.8390   42.4040    9.6830 C.2    30  VAL30       0.2592
     47  O         23.0590   43.2070   10.1910 O.2    30  VAL30      -0.2718
     48  CB        24.7760   40.8120   11.3990 C.3    30  VAL30       0.0266
     49  CG1       26.1390   41.3860   11.0990 C.3    30  VAL30       0.0020
     50  CG2       24.1440   41.5180   12.5960 C.3    30  VAL30       0.0020
     51  N         24.6810   42.7540    8.7180 N.am   31  GLY31      -0.1957
     52  CA        24.6600   44.1150    8.2250 C.3    31  GLY31       0.1869
     53  C         23.3000   44.3950    7.6100 C.2    31  GLY31       0.2309
     54  O         22.5710   45.3050    8.0280 O.2    31  GLY31      -0.2863
     55  N         20.3550   44.5240   10.1780 N.3    34  ALA34      -0.1231
     56  CA        20.2620   45.7260   11.0060 C.3    34  ALA34       0.1694
     57  C         19.7820   46.9320   10.2120 C.2    34  ALA34       0.2591
     58  O         18.8980   47.6710   10.6490 O.2    34  ALA34      -0.2718
     59  CB        21.5980   46.0330   11.6410 C.3    34  ALA34       0.0304
     60  N         20.3740   47.1400    9.0440 N.am   35  LEU35      -0.1980
     61  CA        19.9790   48.2710    8.2330 C.3    35  LEU35       0.1596
     62  C         18.5220   48.1020    7.8310 C.2    35  LEU35       0.2287
     63  O         17.8020   49.0810    7.6240 O.2    35  LEU35      -0.2864
     64  CB        20.8760   48.3840    6.9980 C.3    35  LEU35       0.0297
     65  CG        22.2950   48.8880    7.2620 C.3    35  LEU35       0.0022
     66  CD1       23.0490   48.9320    5.9690 C.3    35  LEU35       0.0001
     67  CD2       22.2620   50.2620    7.8790 C.3    35  LEU35       0.0001
     68  N         26.3560   54.2720   10.4230 N.3    62  TYR62      -0.1241
     69  CA        25.3380   53.3790    9.8540 C.3    62  TYR62       0.1605
     70  C         24.0110   53.4420   10.6120 C.2    62  TYR62       0.2264
     71  O         22.9390   53.3820   10.0150 O.2    62  TYR62      -0.2867
     72  CB        25.8660   51.9290    9.8330 C.3    62  TYR62       0.0534
     73  CG        25.8170   51.2340   11.1760 C.ar   62  TYR62      -0.0201
     74  CD1       24.6570   50.6000   11.6070 C.ar   62  TYR62      -0.0009
     75  CD2       26.9100   51.2680   12.0490 C.ar   62  TYR62      -0.0009
     76  CE1       24.5830   50.0260   12.8750 C.ar   62  TYR62       0.0417
     77  CE2       26.8390   50.7010   13.3160 C.ar   62  TYR62       0.0417
     78  CZ        25.6730   50.0870   13.7170 C.ar   62  TYR62       0.1957
     79  OH        25.5800   49.5600   14.9710 O.3    62  TYR62      -0.2866
     80  N         27.7190   51.1580    3.1490 N.3   103  TYR103     -0.1241
     81  CA        26.6000   51.1720    4.0700 C.3   103  TYR103      0.1605
     82  C         25.5510   52.1690    3.5520 C.2   103  TYR103      0.2264
     83  O         24.3510   51.8750    3.5400 O.2   103  TYR103     -0.2867
     84  CB        27.0860   51.5290    5.4830 C.3   103  TYR103      0.0534
     85  CG        27.8380   50.3970    6.1730 C.ar  103  TYR103     -0.0201
     86  CD1       29.0980   49.9920    5.7240 C.ar  103  TYR103     -0.0009
     87  CD2       27.2720   49.7030    7.2510 C.ar  103  TYR103     -0.0009
     88  CE1       29.7810   48.9230    6.3270 C.ar  103  TYR103      0.0417
     89  CE2       27.9450   48.6260    7.8580 C.ar  103  TYR103      0.0417
     90  CZ        29.2010   48.2440    7.3900 C.ar  103  TYR103      0.1957
     91  OH        29.8840   47.1990    7.9780 O.3   103  TYR103     -0.2866
     92  N         24.7540   49.2250   20.6650 N.3   159  PHE159     -0.1241
     93  CA        25.8170   48.5470   21.3810 C.3   159  PHE159      0.1605
     94  C         26.4890   49.4170   22.4320 C.2   159  PHE159      0.2264
     95  O         27.7000   49.2890   22.6630 O.2   159  PHE159     -0.2867
     96  CB        26.8800   48.0640   20.3900 C.3   159  PHE159      0.0534
     97  CG        26.3420   47.1800   19.3110 C.ar  159  PHE159     -0.0203
     98  CD1       26.3270   47.6080   17.9910 C.ar  159  PHE159     -0.0042
     99  CD2       25.8650   45.9060   19.6100 C.ar  159  PHE159     -0.0042
    100  CE1       25.8480   46.7790   16.9770 C.ar  159  PHE159     -0.0003
    101  CE2       25.3850   45.0710   18.6040 C.ar  159  PHE159     -0.0003
    102  CZ        25.3780   45.5090   17.2830 C.ar  159  PHE159     -0.0000
    103  N         25.0050   47.8940   27.1330 N.3   162  GLU162     -0.1231
    104  CA        25.5520   46.6070   27.5510 C.3   162  GLU162      0.1699
    105  C         27.0760   46.5790   27.5340 C.2   162  GLU162      0.2592
    106  O         27.6910   45.7400   28.1900 O.2   162  GLU162     -0.2718
    107  CB        25.0280   45.4780   26.6650 C.3   162  GLU162      0.0402
    108  CG        25.5260   45.5480   25.2310 C.3   162  GLU162      0.1161
    109  CD        24.5740   46.2810   24.2980 C.2   162  GLU162      0.3649
    110  OE1       24.0800   47.3730   24.6610 O.co2 162  GLU162     -0.2457
    111  OE2       24.3290   45.7610   23.1910 O.co2 162  GLU162     -0.2457
    112  N         27.6880   47.4960   26.7930 N.am  163  ALA163     -0.1980
    113  CA        29.1460   47.5380   26.6960 C.3   163  ALA163      0.1597
    114  C         29.8000   48.4650   27.7140 C.2   163  ALA163      0.2287
    115  O         31.0230   48.4900   27.8500 O.2   163  ALA163     -0.2864
    116  CB        29.5640   47.9330   25.2900 C.3   163  ALA163      0.0319
    117  N         19.7400   49.2130   19.7260 N.3   191  ILE191     -0.1245
    118  CA        20.3590   48.0400   19.1300 C.3   191  ILE191      0.1561
    119  C         21.4010   47.5190   20.1140 C.2   191  ILE191      0.2260
    120  O         21.9540   48.2870   20.9080 O.2   191  ILE191     -0.2867
    121  CB        21.0090   48.3990   17.7770 C.3   191  ILE191      0.0252
    122  CG1       19.8930   48.5320   16.7330 C.3   191  ILE191      0.0019
    123  CG2       22.0850   47.3700   17.3930 C.3   191  ILE191      0.0019
    124  CD1       20.3580   48.8210   15.3220 C.3   191  ILE191      0.0001
    125  N         23.9870   43.8720   21.6980 N.3   193  ALA193     -0.1245
    126  CA        24.5110   42.5200   21.7140 C.3   193  ALA193      0.1562
    127  C         23.8480   41.6430   22.7800 C.2   193  ALA193      0.2260
    128  O         23.7830   41.9960   23.9630 O.2   193  ALA193     -0.2867
    129  CB        26.0250   42.5720   21.9370 C.3   193  ALA193      0.0290
    130  N         26.5370   38.6780   25.3510 N.3   196  GLU196     -0.1245
    131  CA        27.9440   38.9170   25.0690 C.3   196  GLU196      0.1567
    132  C         28.6040   39.3250   26.3740 C.2   196  GLU196      0.2260
    133  O         27.9560   39.9200   27.2320 O.2   196  GLU196     -0.2867
    134  CB        28.0880   40.0220   24.0230 C.3   196  GLU196      0.0388
    135  CG        29.5170   40.4420   23.7580 C.3   196  GLU196      0.1160
    136  CD        29.5900   41.6040   22.8020 C.2   196  GLU196      0.3649
    137  OE1       29.8960   41.4070   21.6110 O.co2 196  GLU196     -0.2457
    138  OE2       29.3140   42.7230   23.2460 O.co2 196  GLU196     -0.2457
    139  N         34.6590   41.9940   24.2060 N.3   199  TYR199     -0.1241
    140  CA        34.9430   42.2590   22.8070 C.3   199  TYR199      0.1605
    141  C         36.2250   43.0550   22.7730 C.2   199  TYR199      0.2264
    142  O         36.4620   43.8960   23.6420 O.2   199  TYR199     -0.2867
    143  CB        33.8030   43.0520   22.1670 C.3   199  TYR199      0.0534
    144  CG        33.7310   44.5100   22.5760 C.ar  199  TYR199     -0.0201
    145  CD1       34.1790   45.5170   21.7180 C.ar  199  TYR199     -0.0009
    146  CD2       33.1850   44.8880   23.8040 C.ar  199  TYR199     -0.0009
    147  CE1       34.0780   46.8560   22.0720 C.ar  199  TYR199      0.0417
    148  CE2       33.0790   46.2210   24.1640 C.ar  199  TYR199      0.0417
    149  CZ        33.5220   47.1990   23.2950 C.ar  199  TYR199      0.1957
    150  OH        33.3810   48.5240   23.6340 O.3   199  TYR199     -0.2866
    151  N         31.5710   43.0700   28.9680 N.3   208  VAL208     -0.1245
    152  CA        30.2270   43.3080   28.4780 C.3   208  VAL208      0.1561
    153  C         29.2880   42.5500   29.4050 C.2   208  VAL208      0.2260
    154  O         29.6780   41.5550   30.0130 O.2   208  VAL208     -0.2867
    155  CB        30.0740   42.7780   27.0170 C.3   208  VAL208      0.0252
    156  CG1       28.6460   42.9920   26.5100 C.3   208  VAL208      0.0019
    157  CG2       31.0800   43.4710   26.1080 C.3   208  VAL208      0.0019
    158  N         23.6990   35.3650   15.6180 N.3   235  MET235     -0.1245
    159  CA        24.9610   35.4810   14.9090 C.3   235  MET235      0.1570
    160  C         25.3750   34.1480   14.3270 C.2   235  MET235      0.2261
    161  O         25.5700   33.1960   15.0570 O.2   235  MET235     -0.2867
    162  CB        26.0400   35.9880   15.8530 C.3   235  MET235      0.0387
    163  CG        27.1790   36.6580   15.1160 C.3   235  MET235      0.0595
    164  SD        26.6750   38.2010   14.2850 S.3   235  MET235     -0.1393
    165  CE        27.3790   39.4000   15.3800 C.3   235  MET235      0.0692
    166  N         35.0810   39.0680   19.6890 N.3   244  ASP244     -0.1239
    167  CA        34.1530   39.0620   20.8060 C.3   244  ASP244      0.1674
    168  C         33.4940   37.7030   20.9090 C.2   244  ASP244      0.2266
    169  O         33.8680   36.7820   20.1850 O.2   244  ASP244     -0.2867
    170  CB        33.0990   40.1650   20.6780 C.3   244  ASP244      0.1410
    171  CG        32.3690   40.1400   19.3550 C.2   244  ASP244      0.3668
    172  OD1       31.8650   39.0610   18.9600 O.co2 244  ASP244     -0.2456
    173  OD2       32.2920   41.2260   18.7270 O.co2 244  ASP244     -0.2456
    174  N         29.8810   37.5640   21.2590 N.3   246  VAL246     -0.1245
    175  CA        28.4550   37.8480   21.0750 C.3   246  VAL246      0.1561
    176  C         27.6750   36.6170   20.4990 C.2   246  VAL246      0.2260
    177  O         28.2170   35.8670   19.6810 O.2   246  VAL246     -0.2867
    178  CB        28.2980   39.0970   20.1420 C.3   246  VAL246      0.0252
    179  CG1       28.8510   38.7880   18.7620 C.3   246  VAL246      0.0019
    180  CG2       26.8410   39.5210   20.0580 C.3   246  VAL246      0.0019
    181  N         22.0840   39.4960   18.0340 N.3   249  VAL249     -0.1245
    182  CA        21.9300   40.9390   18.1570 C.3   249  VAL249      0.1561
    183  C         20.4560   41.2970   18.2360 C.2   249  VAL249      0.2260
    184  O         19.6220   40.6800   17.5670 O.2   249  VAL249     -0.2867
    185  CB        22.5650   41.6800   16.9570 C.3   249  VAL249      0.0252
    186  CG1       22.2150   43.1480   17.0150 C.3   249  VAL249      0.0019
    187  CG2       24.0830   41.5100   16.9760 C.3   249  VAL249      0.0019
@<TRIPOS>BOND
     1    80    81    1
     2    83    82    2
     3    82    81    1
     4    81    84    1
     5    84    85    1
     6    86    85   ar
     7    86    88   ar
     8    66    65    1
     9    85    87   ar
    10    88    90   ar
    11    64    65    1
    12    64    61    1
    13    87    89   ar
    14    65    67    1
    15    90    89   ar
    16    90    91    1
    17    53    54    2
    18    53    52    1
    19    63    62    2
    20    24    23    2
    21    62    61    1
    22    52    51    1
    23    61    60    1
    24    36    35    2
    25    35    34    1
    26    51    46   am
    27    23    22    1
    28    33    34    1
    29    60    57   am
    30    44    45    1
    31    34    37    1
    32    46    45    1
    33    46    47    2
    34    72    69    1
    35    72    73    1
    36    69    68    1
    37    69    70    1
    38    71    70    2
    39    22    25    1
    40    22    21    1
    41    45    48    1
    42    55    56    1
    43    57    58    2
    44    57    56    1
    45    25    26    1
    46    37    38    1
    47    56    59    1
    48    49    48    1
    49    73    74   ar
    50    73    75   ar
    51    21    15   am
    52    28    26   ar
    53    28    30   ar
    54    48    50    1
    55    26    27   ar
    56    16    15    2
    57    74    76   ar
    58    38    39    1
    59    15    14    1
    60    75    77   ar
    61    30    31   ar
    62    27    29   ar
    63    76    78   ar
    64    39    40    1
    65    14    13    1
    66    14    17    1
    67    77    78   ar
    68    31    29   ar
    69    31    32    1
    70    78    79    1
    71    40    41    2
    72   164   163    1
    73   164   165    1
    74   160   159    1
    75   160   161    2
    76    17    18    1
    77   159   158    1
    78   159   162    1
    79     4     3    2
    80   163   162    1
    81     3     2    1
    82   124   122    1
    83    41    42    1
    84    41    43    1
    85    18    19    2
    86    18    20   am
    87     1     2    1
    88     2     5    1
    89   122   121    1
    90     8    10   ar
    91     8     6   ar
    92   185   187    1
    93   185   186    1
    94   185   182    1
    95   100   102   ar
    96   100    98   ar
    97    10    11   ar
    98   102   101   ar
    99     5     6    1
   100   123   121    1
   101   184   183    2
   102     6     7   ar
   103   121   118    1
   104    98    97   ar
   105    11    12    1
   106    11     9   ar
   107   181   182    1
   108   182   183    1
   109     7     9   ar
   110   101    99   ar
   111   173   171   ar
   112   179   178    1
   113   172   171   ar
   114   118   117    1
   115   118   119    1
   116    97    99   ar
   117    97    96    1
   118   171   170    1
   119   177   176    2
   120   166   167    1
   121   180   178    1
   122   119   120    2
   123   178   175    1
   124   169   168    2
   125    96    93    1
   126   176   175    1
   127    92    93    1
   128   170   167    1
   129   167   168    1
   130   175   174    1
   131    93    94    1
   132   137   136   ar
   133   125   126    1
   134   126   129    1
   135   126   127    1
   136   145   147   ar
   137   145   144   ar
   138   147   149   ar
   139   143   144    1
   140   143   140    1
   141    94    95    2
   142   144   146   ar
   143   141   140    1
   144   141   142    2
   145   127   128    2
   146   136   138   ar
   147   136   135    1
   148   140   139    1
   149   111   109   ar
   150   149   150    1
   151   149   148   ar
   152   135   134    1
   153   146   148   ar
   154   134   131    1
   155   109   110   ar
   156   109   108    1
   157   131   130    1
   158   131   132    1
   159   108   107    1
   160   116   113    1
   161   157   155    1
   162   132   133    2
   163   156   155    1
   164   107   104    1
   165   113   112    1
   166   113   114    1
   167   112   105   am
   168   155   152    1
   169   103   104    1
   170   105   104    1
   171   105   106    2
   172   114   115    2
   173   152   151    1
   174   152   153    1
   175   153   154    2
