@<TRIPOS>MOLECULE
tmp/2ophB06.pdb
 185 181 0 0 0
SMALL
GASTEIGER

@<TRIPOS>ATOM
      1  N         -1.0610   58.2120   26.8790 N.3    87  ARG87      -0.1231
      2  CA        -2.2790   57.6150   27.4170 C.3    87  ARG87       0.1694
      3  C         -3.3080   57.2320   26.3480 C.2    87  ARG87       0.2592
      4  O         -3.9730   56.2040   26.4640 O.2    87  ARG87      -0.2718
      5  CB        -2.9220   58.5380   28.4570 C.3    87  ARG87       0.0321
      6  CG        -4.0230   57.8610   29.2530 C.3    87  ARG87       0.0489
      7  CD        -4.8620   58.8780   30.0210 C.3    87  ARG87       0.2205
      8  NE        -4.0850   59.5900   31.0360 N.pl3  87  ARG87      -0.0865
      9  CZ        -3.8720   59.1530   32.2790 C.cat  87  ARG87       0.5346
     10  NH1       -4.3820   57.9860   32.6930 N.pl3  87  ARG87       0.1354
     11  NH2       -3.1430   59.8820   33.1110 N.pl3  87  ARG87       0.1354
     12  N         -3.4230   58.0350   25.3000 N.am   88  HIS88      -0.1976
     13  CA        -4.3870   57.7460   24.2460 C.3    88  HIS88       0.1656
     14  C         -3.7710   57.5140   22.8620 C.2    88  HIS88       0.2291
     15  O         -4.3530   56.8230   22.0200 O.2    88  HIS88      -0.2864
     16  CB        -5.3770   58.8990   24.1310 C.3    88  HIS88       0.0771
     17  CG        -5.9730   59.3110   25.4340 C.ar   88  HIS88       0.0820
     18  ND1       -6.8710   58.5260   26.1250 N.ar   88  HIS88      -0.2267
     19  CD2       -5.8080   60.4350   26.1690 C.ar   88  HIS88       0.1154
     20  CE1       -7.2360   59.1520   27.2300 C.ar   88  HIS88       0.1986
     21  NE2       -6.6060   60.3130   27.2800 N.ar   88  HIS88      -0.2212
     22  N         -3.1840   64.7590   26.8470 N.3   167  GLU167     -0.1231
     23  CA        -3.3970   64.3810   28.2330 C.3   167  GLU167      0.1699
     24  C         -4.3600   65.2260   29.0520 C.2   167  GLU167      0.2592
     25  O         -5.2900   64.6940   29.6310 O.2   167  GLU167     -0.2718
     26  CB        -2.0470   64.3360   28.9570 C.3   167  GLU167      0.0402
     27  CG        -2.1280   64.2240   30.4720 C.3   167  GLU167      0.1161
     28  CD        -2.5450   62.8300   30.9370 C.2   167  GLU167      0.3649
     29  OE1       -2.6880   61.9360   30.0770 O.co2 167  GLU167     -0.2457
     30  OE2       -2.7160   62.6300   32.1690 O.co2 167  GLU167     -0.2457
     31  N         -4.1360   66.5390   29.0840 N.am  168  GLU168     -0.1966
     32  CA        -4.9300   67.4560   29.8970 C.3   168  GLU168      0.1733
     33  C         -6.1520   68.1510   29.2920 C.2   168  GLU168      0.2616
     34  O         -6.9900   68.6650   30.0230 O.2   168  GLU168     -0.2715
     35  CB        -4.0030   68.5380   30.4370 C.3   168  GLU168      0.0429
     36  CG        -2.7120   67.9900   31.0380 C.3   168  GLU168      0.1163
     37  CD        -2.9390   67.2340   32.3360 C.2   168  GLU168      0.3649
     38  OE1       -4.0990   66.8760   32.6420 O.co2 168  GLU168     -0.2457
     39  OE2       -1.9440   66.9880   33.0420 O.co2 168  GLU168     -0.2457
     40  N         -6.2650   68.1770   27.9730 N.am  169  VAL169     -0.1977
     41  CA        -7.3750   68.8880   27.3710 C.3   169  VAL169      0.1596
     42  C         -8.4150   68.0530   26.6340 C.2   169  VAL169      0.2287
     43  O         -9.5910   68.1110   26.9630 O.2   169  VAL169     -0.2864
     44  CB        -6.8410   69.9600   26.4180 C.3   169  VAL169      0.0276
     45  CG1       -7.9850   70.7990   25.8780 C.3   169  VAL169      0.0022
     46  CG2       -5.8190   70.8270   27.1470 C.3   169  VAL169      0.0022
     47  N         -8.1250   64.5120   26.0470 N.3   171  SER171     -0.1217
     48  CA        -8.1550   63.1100   26.4720 C.3   171  SER171      0.1889
     49  C         -8.2500   62.2250   25.2410 C.2   171  SER171      0.2288
     50  O         -8.8860   61.1640   25.2460 O.2   171  SER171     -0.2866
     51  CB        -9.3470   62.8300   27.3910 C.3   171  SER171      0.2089
     52  OG        -9.0750   63.2370   28.7220 O.3   171  SER171     -0.2183
     53  N        -12.7630   69.7940   35.1420 N.3   319  PHE319     -0.1227
     54  CA       -11.3850   69.6950   34.6450 C.3   319  PHE319      0.1736
     55  C        -11.2290   70.5580   33.3960 C.2   319  PHE319      0.2595
     56  O        -10.1280   70.6920   32.8660 O.2   319  PHE319     -0.2718
     57  CB       -11.0190   68.2480   34.3020 C.3   319  PHE319      0.0547
     58  CG       -10.8170   67.3790   35.5040 C.ar  319  PHE319     -0.0202
     59  CD1       -9.5990   67.3840   36.1800 C.ar  319  PHE319     -0.0042
     60  CD2      -11.8500   66.5810   35.9880 C.ar  319  PHE319     -0.0042
     61  CE1       -9.4030   66.6030   37.3300 C.ar  319  PHE319     -0.0003
     62  CE2      -11.6690   65.7960   37.1370 C.ar  319  PHE319     -0.0003
     63  CZ       -10.4360   65.8090   37.8120 C.ar  319  PHE319     -0.0000
     64  N        -12.3430   71.1320   32.9420 N.am  320  ARG320     -0.1980
     65  CA       -12.3800   72.0100   31.7720 C.3   320  ARG320      0.1597
     66  C        -13.8410   72.3250   31.4740 C.2   320  ARG320      0.2287
     67  O        -14.7270   71.5830   31.8900 O.2   320  ARG320     -0.2864
     68  CB       -11.7760   71.3270   30.5550 C.3   320  ARG320      0.0334
     69  CG       -12.6230   70.1910   30.0380 C.3   320  ARG320      0.0492
     70  CD       -12.2780   69.8560   28.6050 C.3   320  ARG320      0.2205
     71  NE       -13.0070   68.6800   28.1580 N.pl3 320  ARG320     -0.0865
     72  CZ       -12.8940   67.4830   28.7240 C.cat 320  ARG320      0.5346
     73  NH1      -12.0740   67.3160   29.7610 N.pl3 320  ARG320      0.1354
     74  NH2      -13.6020   66.4550   28.2550 N.pl3 320  ARG320      0.1354
     75  N         -5.7040   59.6720   47.2830 N.3   509  TYR509     -0.1241
     76  CA        -5.4580   60.2290   45.9620 C.3   509  TYR509      0.1605
     77  C         -5.6240   61.7150   46.2680 C.2   509  TYR509      0.2264
     78  O         -4.6440   62.4510   46.3610 O.2   509  TYR509     -0.2867
     79  CB        -6.4600   59.7320   44.9140 C.3   509  TYR509      0.0534
     80  CG        -6.1580   60.3410   43.5660 C.ar  509  TYR509     -0.0201
     81  CD1       -6.8980   61.4180   43.0930 C.ar  509  TYR509     -0.0009
     82  CD2       -5.0500   59.9160   42.8160 C.ar  509  TYR509     -0.0009
     83  CE1       -6.5490   62.0670   41.9120 C.ar  509  TYR509      0.0417
     84  CE2       -4.6800   60.5600   41.6280 C.ar  509  TYR509      0.0417
     85  CZ        -5.4420   61.6370   41.1870 C.ar  509  TYR509      0.1957
     86  OH        -5.1080   62.2950   40.0370 O.3   509  TYR509     -0.2866
     87  N          0.5540   58.7920   42.0630 N.3   592  SER592     -0.1202
     88  CA         0.3530   60.0630   41.3430 C.3   592  SER592      0.2020
     89  C          0.0870   61.1970   42.3390 C.2   592  SER592      0.2618
     90  O          0.9190   61.4660   43.1900 O.2   592  SER592     -0.2717
     91  CB        -0.8380   59.9010   40.3780 C.3   592  SER592      0.2103
     92  OG        -0.7540   60.7780   39.2840 O.3   592  SER592     -0.2182
     93  N         -1.0630   61.8600   42.2320 N.am  593  TYR593     -0.1975
     94  CA        -1.4070   62.9220   43.1740 C.3   593  TYR593      0.1639
     95  C         -1.4160   62.2840   44.5510 C.2   593  TYR593      0.2290
     96  O         -1.1340   62.9410   45.5580 O.2   593  TYR593     -0.2864
     97  CB        -2.8030   63.4990   42.8870 C.3   593  TYR593      0.0560
     98  CG        -3.0160   64.8900   43.4640 C.ar  593  TYR593     -0.0198
     99  CD1       -3.1690   65.0980   44.8440 C.ar  593  TYR593     -0.0009
    100  CD2       -2.9920   66.0120   42.6340 C.ar  593  TYR593     -0.0009
    101  CE1       -3.2790   66.3940   45.3780 C.ar  593  TYR593      0.0417
    102  CE2       -3.1050   67.3060   43.1500 C.ar  593  TYR593      0.0417
    103  CZ        -3.2460   67.4960   44.5240 C.ar  593  TYR593      0.1957
    104  OH        -3.3450   68.7920   45.0150 O.3   593  TYR593     -0.2866
    105  N          4.2210   63.5660   42.5760 N.3   618  VAL618     -0.1245
    106  CA         4.5960   64.8920   42.1320 C.3   618  VAL618      0.1561
    107  C          5.3400   65.3680   43.3830 C.2   618  VAL618      0.2260
    108  O          4.9580   64.9820   44.4890 O.2   618  VAL618     -0.2867
    109  CB         3.3390   65.7530   41.8920 C.3   618  VAL618      0.0252
    110  CG1        3.6660   67.2560   42.0030 C.3   618  VAL618      0.0019
    111  CG2        2.7880   65.4310   40.5250 C.3   618  VAL618      0.0019
    112  N          5.2870   71.4930   42.1520 N.3   621  TRP621     -0.1241
    113  CA         4.4120   71.8500   41.0600 C.3   621  TRP621      0.1605
    114  C          5.0470   72.4580   39.8200 C.2   621  TRP621      0.2264
    115  O          4.4960   72.3320   38.7250 O.2   621  TRP621     -0.2867
    116  CB         3.2650   72.6970   41.5980 C.3   621  TRP621      0.0550
    117  CG         2.3500   71.8240   42.4260 C.ar  621  TRP621      0.0003
    118  CD1        2.1940   71.8550   43.7820 C.ar  621  TRP621      0.0946
    119  CD2        1.5610   70.7090   41.9580 C.ar  621  TRP621      0.0152
    120  NE1        1.3730   70.8290   44.1910 N.ar  621  TRP621     -0.2442
    121  CE2        0.9710   70.1090   43.0970 C.ar  621  TRP621      0.0810
    122  CE3        1.3030   70.1570   40.6870 C.ar  621  TRP621      0.0012
    123  CZ2        0.1390   68.9760   43.0100 C.ar  621  TRP621      0.0191
    124  CZ3        0.4760   69.0260   40.5950 C.ar  621  TRP621      0.0001
    125  CH2       -0.0950   68.4490   41.7570 C.ar  621  TRP621      0.0015
    126  N          5.4220   69.8770   37.0130 N.3   624  TYR624     -0.1241
    127  CA         4.2870   69.3110   36.2890 C.3   624  TYR624      0.1605
    128  C          3.8240   70.1770   35.0920 C.2   624  TYR624      0.2264
    129  O          4.2660   71.3160   34.9410 O.2   624  TYR624     -0.2867
    130  CB         3.1390   69.0040   37.2560 C.3   624  TYR624      0.0534
    131  CG         2.2630   67.9240   36.7070 C.ar  624  TYR624     -0.0201
    132  CD1        2.8070   66.6790   36.3560 C.ar  624  TYR624     -0.0009
    133  CD2        0.9220   68.1770   36.4010 C.ar  624  TYR624     -0.0009
    134  CE1        2.0450   65.7280   35.6990 C.ar  624  TYR624      0.0417
    135  CE2        0.1500   67.2410   35.7420 C.ar  624  TYR624      0.0417
    136  CZ         0.7090   66.0260   35.3870 C.ar  624  TYR624      0.1957
    137  OH        -0.0460   65.1290   34.6690 O.3   624  TYR624     -0.2866
    138  N         -2.6330   71.5570   33.4890 N.3   628  TYR628     -0.1241
    139  CA        -3.1790   71.0290   34.7310 C.3   628  TYR628      0.1605
    140  C         -2.7610   71.8600   35.9490 C.2   628  TYR628      0.2264
    141  O         -3.6080   72.3160   36.7330 O.2   628  TYR628     -0.2867
    142  CB        -2.7320   69.5740   34.9330 C.3   628  TYR628      0.0534
    143  CG        -3.1810   68.9560   36.2510 C.ar  628  TYR628     -0.0201
    144  CD1       -2.5470   69.2730   37.4560 C.ar  628  TYR628     -0.0009
    145  CD2       -4.2370   68.0340   36.2840 C.ar  628  TYR628     -0.0009
    146  CE1       -2.9480   68.6800   38.6560 C.ar  628  TYR628      0.0417
    147  CE2       -4.6520   67.4370   37.4760 C.ar  628  TYR628      0.0417
    148  CZ        -4.0060   67.7540   38.6500 C.ar  628  TYR628      0.1957
    149  OH        -4.3810   67.1040   39.7990 O.3   628  TYR628     -0.2866
    150  N         -4.1200   75.5110   36.2240 N.3   631  ARG631     -0.1245
    151  CA        -5.5460   75.5990   36.4430 C.3   631  ARG631      0.1563
    152  C         -5.8570   75.7780   37.9290 C.2   631  ARG631      0.2260
    153  O         -6.7720   76.5180   38.3020 O.2   631  ARG631     -0.2867
    154  CB        -6.2250   74.3400   35.9100 C.3   631  ARG631      0.0307
    155  CG        -7.7200   74.3030   36.0990 C.3   631  ARG631      0.0489
    156  CD        -8.2440   72.9180   35.7510 C.3   631  ARG631      0.2205
    157  NE        -7.8270   72.5300   34.4090 N.pl3 631  ARG631     -0.0865
    158  CZ        -7.3630   71.3280   34.0680 C.cat 631  ARG631      0.5346
    159  NH1       -7.2450   70.3570   34.9780 N.pl3 631  ARG631      0.1354
    160  NH2       -7.0190   71.1050   32.8070 N.pl3 631  ARG631      0.1354
    161  N          4.7570   61.4130   32.0690 N.3   672  ASN672     -0.1225
    162  CA         3.7470   62.2560   32.7240 C.3   672  ASN672      0.1785
    163  C          4.3360   62.9910   33.9450 C.2   672  ASN672      0.2597
    164  O          4.5630   64.1990   33.8920 O.2   672  ASN672     -0.2718
    165  CB         2.5930   61.3410   33.1300 C.3   672  ASN672      0.1169
    166  CG         1.3350   62.0840   33.4370 C.2   672  ASN672      0.2627
    167  OD1        1.3680   63.2380   33.8720 O.2   672  ASN672     -0.2716
    168  ND2        0.1950   61.4200   33.2300 N.am  672  ASN672     -0.0877
    169  N          4.5340   62.2650   35.0490 N.am  673  VAL673     -0.1980
    170  CA         5.1640   62.8060   36.2580 C.3   673  VAL673      0.1595
    171  C          6.5960   62.3020   36.1030 C.2   673  VAL673      0.2287
    172  O          6.8950   61.1440   36.3820 O.2   673  VAL673     -0.2864
    173  CB         4.5320   62.2230   37.5380 C.3   673  VAL673      0.0276
    174  CG1        5.2890   62.7000   38.8000 C.3   673  VAL673      0.0022
    175  CG2        3.0840   62.6700   37.6120 C.3   673  VAL673      0.0022
    176  N          4.0450   56.1510   33.8920 N.3   702  HIS702     -0.1241
    177  CA         3.2010   56.4980   35.0240 C.3   702  HIS702      0.1621
    178  C          2.2780   55.3860   35.5160 C.2   702  HIS702      0.2264
    179  O          1.8890   55.3690   36.6910 O.2   702  HIS702     -0.2867
    180  CB         2.3560   57.7240   34.7030 C.3   702  HIS702      0.0745
    181  CG         1.8970   58.4540   35.9210 C.ar  702  HIS702      0.0817
    182  ND1        2.7510   58.7620   36.9560 N.ar  702  HIS702     -0.2268
    183  CD2        0.6870   58.9510   36.2680 C.ar  702  HIS702      0.1154
    184  CE1        2.0890   59.4210   37.8930 C.ar  702  HIS702      0.1986
    185  NE2        0.8340   59.5490   37.4980 N.ar  702  HIS702     -0.2212
@<TRIPOS>BOND
     1    15    14    2
     2    14    13    1
     3    16    13    1
     4    16    17    1
     5    13    12    1
     6    49    50    2
     7    49    48    1
     8    12     3   am
     9    17    18   ar
    10    17    19   ar
    11    45    44    1
    12    47    48    1
    13    18    20   ar
    14    19    21   ar
    15     3     4    2
    16     3     2    1
    17    44    46    1
    18    44    41    1
    19    48    51    1
    20    42    43    2
    21    42    41    1
    22    22    23    1
    23     1     2    1
    24    20    21   ar
    25    41    40    1
    26    51    52    1
    27     2     5    1
    28    40    33   am
    29    71    70    1
    30    71    72    2
    31    23    26    1
    32    23    24    1
    33    74    72    1
    34     5     6    1
    35    70    69    1
    36    72    73    1
    37    26    27    1
    38    24    31   am
    39    24    25    2
    40    31    32    1
    41     6     7    1
    42    33    32    1
    43    33    34    2
    44    32    35    1
    45     7     8    1
    46    69    68    1
    47    29    28   ar
    48    35    36    1
    49    27    28    1
    50    68    65    1
    51    28    30   ar
    52     8     9    2
    53    36    37    1
    54    66    65    1
    55    66    67    2
    56    65    64    1
    57   161   162    1
    58     9    10    1
    59     9    11    1
    60    37    38   ar
    61    37    39   ar
    62   162   165    1
    63   162   163    1
    64   160   158    1
    65    56    55    2
    66    64    55   am
    67   165   166    1
    68   168   166   am
    69    55    54    1
    70   166   167    2
    71   138   139    1
    72   176   177    1
    73   164   163    2
    74   163   169   am
    75   158   157    2
    76   158   159    1
    77    57    54    1
    78    57    58    1
    79   157   156    1
    80    54    53    1
    81   137   136    1
    82   180   177    1
    83   180   181    1
    84   139   142    1
    85   139   140    1
    86   142   143    1
    87   129   128    2
    88   177   178    1
    89   169   170    1
    90   128   127    1
    91   136   134   ar
    92   136   135   ar
    93    58    60   ar
    94    58    59   ar
    95   178   179    2
    96   134   132   ar
    97   135   133   ar
    98   156   155    1
    99   154   155    1
   100   154   151    1
   101   181   183   ar
   102   181   182   ar
   103   140   141    2
   104    60    62   ar
   105   171   170    1
   106   171   172    2
   107    59    61   ar
   108   150   151    1
   109   143   145   ar
   110   143   144   ar
   111   170   173    1
   112   183   185   ar
   113   145   147   ar
   114   127   126    1
   115   127   130    1
   116   132   131   ar
   117   133   131   ar
   118   151   152    1
   119   131   130    1
   120   182   184   ar
   121    62    63   ar
   122    61    63   ar
   123   144   146   ar
   124   147   148   ar
   125   185   184   ar
   126   173   175    1
   127   173   174    1
   128   152   153    2
   129   148   146   ar
   130   148   149    1
   131   115   114    2
   132    92    91    1
   133   114   113    1
   134    86    85    1
   135    91    88    1
   136   111   109    1
   137   124   122   ar
   138   124   125   ar
   139   122   119   ar
   140   113   116    1
   141   113   112    1
   142    85    84   ar
   143    85    83   ar
   144    88    87    1
   145    88    89    1
   146   116   117    1
   147    84    82   ar
   148   125   123   ar
   149   109   110    1
   150   109   106    1
   151    83    81   ar
   152   119   117   ar
   153   119   121   ar
   154   106   105    1
   155   106   107    1
   156    93    89   am
   157    93    94    1
   158    89    90    2
   159   117   118   ar
   160   100   102   ar
   161   100    98   ar
   162    82    80   ar
   163    97    94    1
   164    97    98    1
   165   123   121   ar
   166    81    80   ar
   167   121   120   ar
   168   102   103   ar
   169    94    95    1
   170   107   108    2
   171    98    99   ar
   172    80    79    1
   173   118   120   ar
   174   103   104    1
   175   103   101   ar
   176    95    96    2
   177    99   101   ar
   178    79    76    1
   179    76    77    1
   180    76    75    1
   181    77    78    2
