@<TRIPOS>MOLECULE
tmp/2opmA00.pdb
 168 154 0 0 0
SMALL
GASTEIGER

@<TRIPOS>ATOM
      1  N          2.4370   81.1490   19.5360 N.3    46  ARG46      -0.1245
      2  CA         2.5480   82.5930   19.7160 C.3    46  ARG46       0.1563
      3  C          1.8380   83.3500   18.6070 C.2    46  ARG46       0.2260
      4  O          1.0530   84.2630   18.8630 O.2    46  ARG46      -0.2867
      5  CB         4.0230   83.0100   19.7740 C.3    46  ARG46       0.0307
      6  CG         4.8300   82.1690   20.7570 C.3    46  ARG46       0.0489
      7  CD         6.1620   82.8300   21.0740 C.3    46  ARG46       0.2205
      8  NE         6.8760   82.1320   22.1350 N.pl3  46  ARG46      -0.0865
      9  CZ         7.3510   80.8980   22.0400 C.cat  46  ARG46       0.5346
     10  NH1        7.1960   80.2050   20.9220 N.pl3  46  ARG46       0.1354
     11  NH2        7.9880   80.3700   23.0750 N.pl3  46  ARG46       0.1354
     12  N         15.3520   84.8660   17.8220 N.3    85  PHE85      -0.1227
     13  CA        15.8410   84.3900   19.1040 C.3    85  PHE85       0.1736
     14  C         16.3540   82.9570   19.0370 C.2    85  PHE85       0.2595
     15  O         17.3000   82.5870   19.7360 O.2    85  PHE85      -0.2718
     16  CB        14.7060   84.4750   20.1230 C.3    85  PHE85       0.0547
     17  CG        14.3660   85.8460   20.6660 C.ar   85  PHE85      -0.0202
     18  CD1       13.0420   86.2200   20.8510 C.ar   85  PHE85      -0.0042
     19  CD2       15.3550   86.7540   21.0020 C.ar   85  PHE85      -0.0042
     20  CE1       12.7390   87.4640   21.3630 C.ar   85  PHE85      -0.0003
     21  CE2       15.0570   88.0090   21.5060 C.ar   85  PHE85      -0.0003
     22  CZ        13.7340   88.3680   21.6810 C.ar   85  PHE85      -0.0000
     23  N         15.7360   82.1190   18.2080 N.am   86  LEU86      -0.1980
     24  CA        16.0760   80.7070   18.1200 C.3    86  LEU86       0.1596
     25  C         17.3780   80.4970   17.3600 C.2    86  LEU86       0.2287
     26  O         18.2380   79.7410   17.7920 O.2    86  LEU86      -0.2864
     27  CB        14.9810   79.9010   17.4080 C.3    86  LEU86       0.0297
     28  CG        13.6810   79.6860   18.1800 C.3    86  LEU86       0.0022
     29  CD1       12.6660   78.9280   17.3290 C.3    86  LEU86       0.0001
     30  CD2       13.9240   78.9450   19.4900 C.3    86  LEU86       0.0001
     31  N         19.9980   81.6850   19.6350 N.3    89  ASP89      -0.1239
     32  CA        20.0210   80.8220   20.8140 C.3    89  ASP89       0.1674
     33  C         20.7180   79.5080   20.4880 C.2    89  ASP89       0.2266
     34  O         21.4990   78.9660   21.2650 O.2    89  ASP89      -0.2867
     35  CB        18.6050   80.5700   21.3270 C.3    89  ASP89       0.1410
     36  CG        18.5080   79.7000   22.5600 C.2    89  ASP89       0.3668
     37  OD1       18.4140   80.2260   23.6890 O.co2  89  ASP89      -0.2456
     38  OD2       18.5100   78.4560   22.4310 O.co2  89  ASP89      -0.2456
     39  N         23.9380   78.2840   22.4230 N.3    93  ASP93      -0.1239
     40  CA        23.7760   77.0720   23.2260 C.3    93  ASP93       0.1674
     41  C         24.5210   75.9190   22.5570 C.2    93  ASP93       0.2266
     42  O         24.6380   74.8330   23.1180 O.2    93  ASP93      -0.2867
     43  CB        22.2990   76.7470   23.4140 C.3    93  ASP93       0.1410
     44  CG        21.6180   77.6290   24.4450 C.2    93  ASP93       0.3668
     45  OD1       22.3230   78.4010   25.1270 O.co2  93  ASP93      -0.2456
     46  OD2       20.3780   77.5670   24.5830 O.co2  93  ASP93      -0.2456
     47  N         16.8500   71.5980   15.8220 N.3    98  ARG98      -0.1245
     48  CA        15.7120   72.4070   16.2380 C.3    98  ARG98       0.1563
     49  C         14.4900   72.1620   15.3620 C.2    98  ARG98       0.2260
     50  O         14.5470   72.2020   14.1280 O.2    98  ARG98      -0.2867
     51  CB        16.1090   73.8830   16.1990 C.3    98  ARG98       0.0307
     52  CG        14.9080   74.8090   16.0720 C.3    98  ARG98       0.0489
     53  CD        14.4350   75.2140   17.4630 C.3    98  ARG98       0.2205
     54  NE        15.5270   75.8440   18.2080 N.pl3  98  ARG98      -0.0865
     55  CZ        15.4460   76.0240   19.5220 C.cat  98  ARG98       0.5346
     56  NH1       14.3480   75.6150   20.1500 N.pl3  98  ARG98       0.1354
     57  NH2       16.4360   76.5920   20.1920 N.pl3  98  ARG98       0.1354
     58  N         13.9650   89.9610   26.8380 N.3   153  THR153     -0.1218
     59  CA        14.4600   88.6240   26.5320 C.3   153  THR153      0.1862
     60  C         15.9880   88.6070   26.5230 C.2   153  THR153      0.2287
     61  O         16.5640   87.6930   27.1160 O.2   153  THR153     -0.2866
     62  CB        13.9220   88.0900   25.1910 C.3   153  THR153      0.1770
     63  OG1       12.5010   88.2690   25.1320 O.3   153  THR153     -0.2211
     64  CG2       14.1790   86.5930   25.0640 C.3   153  THR153      0.0375
     65  N         18.1970   86.2240   28.7540 N.3   157  GLN157     -0.1245
     66  CA        19.2730   85.4390   28.1630 C.3   157  GLN157      0.1566
     67  C         20.6040   85.7780   28.8270 C.2   157  GLN157      0.2260
     68  O         21.3580   84.8740   29.1830 O.2   157  GLN157     -0.2867
     69  CB        19.3300   85.6780   26.6550 C.3   157  GLN157      0.0367
     70  CG        18.9740   84.4470   25.8280 C.3   157  GLN157      0.0905
     71  CD        20.0220   83.3620   25.9870 C.2   157  GLN157      0.2608
     72  OE1       20.9090   83.4850   26.8320 O.2   157  GLN157     -0.2717
     73  NE2       19.9390   82.3140   25.1780 N.am  157  GLN157     -0.0878
     74  N         20.8170   83.9610   32.1270 N.3   160  ASP160     -0.1239
     75  CA        21.0080   82.5780   31.7430 C.3   160  ASP160      0.1674
     76  C         22.4750   82.2190   31.5160 C.2   160  ASP160      0.2266
     77  O         23.0690   81.3960   32.2180 O.2   160  ASP160     -0.2867
     78  CB        20.1970   82.3310   30.4610 C.3   160  ASP160      0.1410
     79  CG        19.6060   80.9430   30.3860 C.2   160  ASP160      0.3668
     80  OD1       19.4780   80.4140   29.2600 O.co2 160  ASP160     -0.2456
     81  OD2       19.2790   80.3940   31.4600 O.co2 160  ASP160     -0.2456
     82  N         13.4990   85.8760   30.1360 N.3   186  LYS186     -0.1231
     83  CA        13.9030   85.2640   28.8690 C.3   186  LYS186      0.1693
     84  C         12.7580   84.5770   28.1550 C.2   186  LYS186      0.2592
     85  O         12.8790   84.3070   26.9570 O.2   186  LYS186     -0.2718
     86  CB        15.0540   84.2840   29.0960 C.3   186  LYS186      0.0285
     87  CG        14.6750   82.8550   29.4120 C.3   186  LYS186      0.0035
     88  CD        15.6910   81.8840   28.8240 C.3   186  LYS186      0.0206
     89  CE        16.0920   80.8220   29.8280 C.3   186  LYS186      0.1093
     90  NZ        15.5960   79.4710   29.4690 N.3   186  LYS186     -0.1314
     91  N         11.6480   84.2810   28.8300 N.am  187  THR187     -0.1953
     92  CA        10.6180   83.5260   28.1210 C.3   187  THR187      0.1897
     93  C          9.2340   84.1540   28.2000 C.2   187  THR187      0.2313
     94  O          8.5600   84.3260   27.1880 O.2   187  THR187     -0.2863
     95  CB        10.4740   82.0950   28.6850 C.3   187  THR187      0.1794
     96  OG1       11.4700   81.2490   28.1110 O.3   187  THR187     -0.2208
     97  CG2        9.1180   81.5200   28.2930 C.3   187  THR187      0.0378
     98  N          7.9140   87.6200   26.3050 N.3   190  TYR190     -0.1241
     99  CA         7.7410   87.6080   24.8530 C.3   190  TYR190      0.1605
    100  C          6.8380   86.4820   24.3780 C.2   190  TYR190      0.2264
    101  O          6.2080   86.5970   23.3220 O.2   190  TYR190     -0.2867
    102  CB         9.1160   87.5400   24.1830 C.3   190  TYR190      0.0534
    103  CG         9.6160   86.1710   23.8160 C.ar  190  TYR190     -0.0201
    104  CD1        9.5020   85.7170   22.5060 C.ar  190  TYR190     -0.0009
    105  CD2       10.2040   85.3270   24.7490 C.ar  190  TYR190     -0.0009
    106  CE1        9.9490   84.4670   22.1310 C.ar  190  TYR190      0.0417
    107  CE2       10.6570   84.0720   24.3840 C.ar  190  TYR190      0.0417
    108  CZ        10.5290   83.6460   23.0780 C.ar  190  TYR190      0.1957
    109  OH        10.9790   82.3950   22.6990 O.3   190  TYR190     -0.2866
    110  N          8.1370   77.6000   30.7740 N.3   226  GLN226     -0.1245
    111  CA         9.5740   77.3300   30.6930 C.3   226  GLN226      0.1566
    112  C          9.9440   76.0850   31.4910 C.2   226  GLN226      0.2260
    113  O         10.7870   75.2860   31.0780 O.2   226  GLN226     -0.2867
    114  CB        10.3630   78.5450   31.1740 C.3   226  GLN226      0.0367
    115  CG        11.8470   78.5030   30.8460 C.3   226  GLN226      0.0905
    116  CD        12.1340   78.0390   29.4320 C.2   226  GLN226      0.2608
    117  OE1       11.5960   78.5880   28.4720 O.2   226  GLN226     -0.2717
    118  NE2       12.9840   77.0300   29.2870 N.am  226  GLN226     -0.0878
    119  N          9.3680   73.2990   29.3850 N.3   229  ASP229     -0.1225
    120  CA        10.4380   73.2610   28.3980 C.3   229  ASP229      0.1805
    121  C         11.6890   72.6220   29.0000 C.2   229  ASP229      0.2597
    122  O         12.3910   71.8470   28.3560 O.2   229  ASP229     -0.2718
    123  CB        10.7100   74.6780   27.8980 C.3   229  ASP229      0.1424
    124  CG        11.7530   74.7260   26.8020 C.2   229  ASP229      0.3668
    125  OD1       11.3690   74.6430   25.6180 O.co2 229  ASP229     -0.2456
    126  OD2       12.9560   74.8450   27.1260 O.co2 229  ASP229     -0.2456
    127  N         11.9800   72.9290   30.2610 N.am  230  ASP230     -0.1974
    128  CA        13.1050   72.3090   30.9540 C.3   230  ASP230      0.1709
    129  C         12.8990   70.8070   31.1460 C.2   230  ASP230      0.2293
    130  O         13.7790   70.0130   30.8010 O.2   230  ASP230     -0.2864
    131  CB        13.3260   72.9640   32.3160 C.3   230  ASP230      0.1436
    132  CG        13.8080   74.3940   32.2830 C.2   230  ASP230      0.3671
    133  OD1       14.1750   74.9020   31.2030 O.co2 230  ASP230     -0.2456
    134  OD2       13.8310   75.0360   33.3600 O.co2 230  ASP230     -0.2456
    135  N         13.3580   69.1990   28.0830 N.3   233  ASP233     -0.1239
    136  CA        14.7460   69.2290   27.6300 C.3   233  ASP233      0.1674
    137  C         15.3910   67.8700   27.8990 C.2   233  ASP233      0.2266
    138  O         16.0370   67.3040   27.0210 O.2   233  ASP233     -0.2867
    139  CB        15.5670   70.3300   28.2980 C.3   233  ASP233      0.1410
    140  CG        16.8680   70.6020   27.5610 C.2   233  ASP233      0.3668
    141  OD1       16.7970   71.1280   26.4310 O.co2 233  ASP233     -0.2456
    142  OD2       17.9600   70.3000   28.0910 O.co2 233  ASP233     -0.2456
    143  N         13.9840   68.5950   18.9390 N.3   243  LYS243     -0.1245
    144  CA        15.3260   69.0740   19.2700 C.3   243  LYS243      0.1561
    145  C         15.9160   68.1930   20.3590 C.2   243  LYS243      0.2260
    146  O         15.2000   67.3400   20.8990 O.2   243  LYS243     -0.2867
    147  CB        15.2840   70.5310   19.7220 C.3   243  LYS243      0.0271
    148  CG        14.6390   70.7390   21.0840 C.3   243  LYS243      0.0035
    149  CD        13.6440   71.8870   21.0730 C.3   243  LYS243      0.0206
    150  CE        13.9280   72.9030   22.1650 C.3   243  LYS243      0.1093
    151  NZ        12.7110   73.3830   22.8780 N.3   243  LYS243     -0.1314
    152  N         20.9150   71.3080   28.3620 N.3   247  ASP247     -0.1239
    153  CA        20.9420   72.0700   29.6010 C.3   247  ASP247      0.1674
    154  C         22.0080   71.5770   30.5730 C.2   247  ASP247      0.2266
    155  O         22.7390   72.3670   31.1580 O.2   247  ASP247     -0.2867
    156  CB        19.5710   71.9990   30.2850 C.3   247  ASP247      0.1410
    157  CG        18.5350   72.8220   29.5440 C.2   247  ASP247      0.3668
    158  OD1       17.4490   73.0330   30.1210 O.co2 247  ASP247     -0.2456
    159  OD2       18.8200   73.2370   28.4020 O.co2 247  ASP247     -0.2456
    160  N         23.3460   74.5980   32.6490 N.3   252  LYS252     -0.1245
    161  CA        22.2580   75.5600   32.7470 C.3   252  LYS252      0.1561
    162  C         21.6440   75.5540   34.1400 C.2   252  LYS252      0.2260
    163  O         21.7230   74.5770   34.8810 O.2   252  LYS252     -0.2867
    164  CB        21.2000   75.2510   31.6830 C.3   252  LYS252      0.0271
    165  CG        21.6360   75.5490   30.2580 C.3   252  LYS252      0.0035
    166  CD        21.9280   77.0380   30.0930 C.3   252  LYS252      0.0206
    167  CE        22.0880   77.4050   28.6230 C.3   252  LYS252      0.1093
    168  NZ        20.7690   77.6470   27.9710 N.3   252  LYS252     -0.1314
@<TRIPOS>BOND
     1    50    49    2
     2    49    48    1
     3    47    48    1
     4    52    51    1
     5    52    53    1
     6    51    48    1
     7    29    28    1
     8    25    26    2
     9    25    24    1
    10    27    24    1
    11    27    28    1
    12    53    54    1
    13    12    13    1
    14    24    23    1
    15    28    30    1
    16    54    55    2
    17    23    14   am
    18     3     4    2
    19     3     2    1
    20   143   144    1
    21    14    13    1
    22    14    15    2
    23    13    16    1
    24   144   147    1
    25   144   145    1
    26    55    56    1
    27    55    57    1
    28     1     2    1
    29    31    32    1
    30     2     5    1
    31   147   148    1
    32     5     6    1
    33    16    17    1
    34   145   146    2
    35    33    32    1
    36    33    34    2
    37    17    18   ar
    38    17    19   ar
    39     6     7    1
    40    32    35    1
    41    18    20   ar
    42    10     9    1
    43    19    21   ar
    44   149   148    1
    45   149   150    1
    46     7     8    1
    47    35    36    1
    48    20    22   ar
    49    21    22   ar
    50     9     8    2
    51     9    11    1
    52   106   104   ar
    53   106   108   ar
    54   150   151    1
    55    39    40    1
    56    38    36   ar
    57   104   103   ar
    58    41    42    2
    59    41    40    1
    60    36    37   ar
    61   109   108    1
    62   108   107   ar
    63    40    43    1
    64   101   100    2
    65    43    44    1
    66   103   102    1
    67   103   105   ar
    68   102    99    1
    69   100    99    1
    70   107   105   ar
    71    44    46   ar
    72    44    45   ar
    73    99    98    1
    74    64    62    1
    75    63    62    1
    76    73    71   am
    77    62    59    1
    78   125   124   ar
    79    70    71    1
    80    70    69    1
    81    71    72    2
    82   141   140   ar
    83    60    59    1
    84    60    61    2
    85    59    58    1
    86    69    66    1
    87   124   126   ar
    88   124   123    1
    89    85    84    2
    90   138   137    2
    91    94    93    2
    92   140   142   ar
    93   140   139    1
    94   136   137    1
    95   136   135    1
    96   136   139    1
    97   123   120    1
    98   168   167    1
    99    96    95    1
   100    92    93    1
   101    92    95    1
   102    92    91    1
   103    84    91   am
   104    84    83    1
   105    66    65    1
   106    66    67    1
   107    97    95    1
   108   122   121    2
   109   152   153    1
   110   120   121    1
   111   120   119    1
   112   159   157   ar
   113   117   116    2
   114   167   166    1
   115    88    87    1
   116    88    89    1
   117    67    68    2
   118    83    86    1
   119    83    82    1
   120   121   127   am
   121    86    87    1
   122    80    79   ar
   123   118   116   am
   124   116   115    1
   125    90    89    1
   126   157   158   ar
   127   157   156    1
   128   153   156    1
   129   153   154    1
   130   166   165    1
   131   165   164    1
   132   127   128    1
   133    79    78    1
   134    79    81   ar
   135    78    75    1
   136   154   155    2
   137   111   110    1
   138   111   114    1
   139   111   112    1
   140   130   129    2
   141   115   114    1
   142   128   129    1
   143   128   131    1
   144   113   112    2
   145   133   132   ar
   146    76    75    1
   147    76    77    2
   148   164   161    1
   149    75    74    1
   150   132   131    1
   151   132   134   ar
   152   160   161    1
   153   161   162    1
   154   162   163    2
