@<TRIPOS>MOLECULE
tmp/2opnA00.pdb
 169 155 0 0 0
SMALL
GASTEIGER

@<TRIPOS>ATOM
      1  N          2.4760   81.0560   19.7260 N.3    46  ARG46      -0.1245
      2  CA         2.5570   82.5140   19.7890 C.3    46  ARG46       0.1563
      3  C          1.7510   83.1580   18.6680 C.2    46  ARG46       0.2260
      4  O          0.7980   83.8890   18.9420 O.2    46  ARG46      -0.2867
      5  CB         4.0100   82.9890   19.7350 C.3    46  ARG46       0.0307
      6  CG         5.0310   81.9570   20.2000 C.3    46  ARG46       0.0489
      7  CD         6.3640   82.6130   20.4870 C.3    46  ARG46       0.2205
      8  NE         6.9630   82.2530   21.7620 N.pl3  46  ARG46      -0.0865
      9  CZ         7.3660   81.0490   22.1400 C.cat  46  ARG46       0.5346
     10  NH1        7.2440   80.0040   21.3330 N.pl3  46  ARG46       0.1354
     11  NH2        7.9010   80.8730   23.3430 N.pl3  46  ARG46       0.1354
     12  N         10.4590   84.9130   17.3550 N.3    82  GLN82      -0.1245
     13  CA        10.8940   83.6090   17.8330 C.3    82  GLN82       0.1566
     14  C         11.9860   83.0560   16.9190 C.2    82  GLN82       0.2260
     15  O         13.0250   82.6040   17.3970 O.2    82  GLN82      -0.2867
     16  CB         9.7430   82.6110   17.8890 C.3    82  GLN82       0.0367
     17  CG        10.2280   81.1990   18.2110 C.3    82  GLN82       0.0905
     18  CD         9.3540   80.5640   19.2770 C.2    82  GLN82       0.2608
     19  OE1        9.7030   80.5450   20.4590 O.2    82  GLN82      -0.2717
     20  NE2        8.2100   80.0660   18.8180 N.am   82  GLN82      -0.0878
     21  N         15.1850   84.8000   17.9360 N.3    85  PHE85      -0.1227
     22  CA        15.7300   84.3660   19.2130 C.3    85  PHE85       0.1736
     23  C         16.3120   82.9530   19.1450 C.2    85  PHE85       0.2595
     24  O         17.3020   82.6520   19.8140 O.2    85  PHE85      -0.2718
     25  CB        14.6450   84.3990   20.2870 C.3    85  PHE85       0.0547
     26  CG        14.2430   85.7610   20.8160 C.ar   85  PHE85      -0.0202
     27  CD1       15.1480   86.8040   20.8830 C.ar   85  PHE85      -0.0042
     28  CD2       12.9450   85.9810   21.2490 C.ar   85  PHE85      -0.0042
     29  CE1       14.7740   88.0420   21.3700 C.ar   85  PHE85      -0.0003
     30  CE2       12.5590   87.2110   21.7430 C.ar   85  PHE85      -0.0003
     31  CZ        13.4760   88.2440   21.8020 C.ar   85  PHE85      -0.0000
     32  N         15.6880   82.0940   18.3540 N.am   86  LEU86      -0.1980
     33  CA        16.0190   80.6880   18.1920 C.3    86  LEU86       0.1596
     34  C         17.3530   80.4790   17.4780 C.2    86  LEU86       0.2287
     35  O         18.2960   79.9250   18.0340 O.2    86  LEU86      -0.2864
     36  CB        14.9260   79.9880   17.3820 C.3    86  LEU86       0.0297
     37  CG        13.6890   79.4650   18.1000 C.3    86  LEU86       0.0022
     38  CD1       13.0130   78.3840   17.2640 C.3    86  LEU86       0.0001
     39  CD2       14.0250   78.9230   19.4820 C.3    86  LEU86       0.0001
     40  N         19.8740   81.5240   19.5350 N.3    89  ASP89      -0.1239
     41  CA        19.8870   80.7250   20.7530 C.3    89  ASP89       0.1674
     42  C         20.6370   79.4140   20.5470 C.2    89  ASP89       0.2266
     43  O         21.3470   78.9460   21.4380 O.2    89  ASP89      -0.2867
     44  CB        18.4600   80.4270   21.2180 C.3    89  ASP89       0.1410
     45  CG        18.4120   79.7830   22.5880 C.2    89  ASP89       0.3668
     46  OD1       19.3590   79.9800   23.3780 O.co2  89  ASP89      -0.2456
     47  OD2       17.4230   79.0780   22.8860 O.co2  89  ASP89      -0.2456
     48  N         23.8590   78.0600   22.7570 N.3    93  ASP93      -0.1239
     49  CA        23.8040   76.8510   23.5780 C.3    93  ASP93       0.1674
     50  C         24.4390   75.6710   22.8370 C.2    93  ASP93       0.2266
     51  O         24.5680   74.5990   23.4250 O.2    93  ASP93      -0.2867
     52  CB        22.3750   76.5050   23.9790 C.3    93  ASP93       0.1410
     53  CG        21.6080   77.6850   24.5430 C.2    93  ASP93       0.3668
     54  OD1       21.5750   77.8580   25.7800 O.co2  93  ASP93      -0.2456
     55  OD2       21.0330   78.4530   23.7400 O.co2  93  ASP93      -0.2456
     56  N         16.5680   71.3950   15.9200 N.3    98  ARG98      -0.1245
     57  CA        15.4640   72.2870   16.2570 C.3    98  ARG98       0.1563
     58  C         14.2990   71.9810   15.3240 C.2    98  ARG98       0.2260
     59  O         14.4840   71.8970   14.1050 O.2    98  ARG98      -0.2867
     60  CB        15.9310   73.7320   16.1600 C.3    98  ARG98       0.0307
     61  CG        14.8340   74.7620   15.9630 C.3    98  ARG98       0.0489
     62  CD        14.4420   75.4090   17.2800 C.3    98  ARG98       0.2205
     63  NE        15.6070   75.7090   18.1150 N.pl3  98  ARG98      -0.0865
     64  CZ        15.5020   75.8400   19.4340 C.cat  98  ARG98       0.5346
     65  NH1       14.3080   75.6970   19.9990 N.pl3  98  ARG98       0.1354
     66  NH2       16.5620   76.1090   20.1790 N.pl3  98  ARG98       0.1354
     67  N         13.7330   89.6980   26.9600 N.3   153  THR153     -0.1218
     68  CA        14.3140   88.4070   26.6080 C.3   153  THR153      0.1862
     69  C         15.8350   88.5000   26.7000 C.2   153  THR153      0.2287
     70  O         16.4730   87.7730   27.4590 O.2   153  THR153     -0.2866
     71  CB        13.8970   87.9680   25.1960 C.3   153  THR153      0.1770
     72  OG1       12.5100   88.2720   24.9970 O.3   153  THR153     -0.2211
     73  CG2       14.0300   86.4630   25.0200 C.3   153  THR153      0.0375
     74  N         18.2620   86.1980   28.7940 N.3   157  GLN157     -0.1245
     75  CA        19.3640   85.3930   28.2670 C.3   157  GLN157      0.1566
     76  C         20.6720   85.7510   28.9720 C.2   157  GLN157      0.2260
     77  O         21.4310   84.8560   29.3560 O.2   157  GLN157     -0.2867
     78  CB        19.4890   85.5670   26.7540 C.3   157  GLN157      0.0367
     79  CG        18.2610   85.1110   26.0090 C.3   157  GLN157      0.0905
     80  CD        18.3870   85.2690   24.5180 C.2   157  GLN157      0.2608
     81  OE1       19.4390   85.5120   24.0060 O.2   157  GLN157     -0.2717
     82  NE2       17.2690   85.1750   23.8160 N.am  157  GLN157     -0.0878
     83  N         20.7900   83.8690   32.1360 N.3   160  ASP160     -0.1239
     84  CA        21.0520   82.4670   31.8370 C.3   160  ASP160      0.1674
     85  C         22.5530   82.2220   31.6850 C.2   160  ASP160      0.2266
     86  O         23.1920   81.7030   32.6000 O.2   160  ASP160     -0.2867
     87  CB        20.3050   82.0600   30.5700 C.3   160  ASP160      0.1410
     88  CG        19.6990   80.6710   30.5940 C.2   160  ASP160      0.3668
     89  OD1       19.3500   80.1640   31.6820 O.co2 160  ASP160     -0.2456
     90  OD2       19.5640   80.0730   29.4990 O.co2 160  ASP160     -0.2456
     91  N         13.4400   85.7380   30.0250 N.3   186  LYS186     -0.1231
     92  CA        13.7750   85.1560   28.7230 C.3   186  LYS186      0.1693
     93  C         12.6240   84.3710   28.1260 C.2   186  LYS186      0.2592
     94  O         12.7220   83.9670   26.9660 O.2   186  LYS186     -0.2718
     95  CB        15.0180   84.2730   28.8570 C.3   186  LYS186      0.0285
     96  CG        14.7880   82.9920   29.6420 C.3   186  LYS186      0.0035
     97  CD        15.5530   81.8400   29.0030 C.3   186  LYS186      0.0206
     98  CE        15.4770   80.5950   29.8730 C.3   186  LYS186      0.1093
     99  NZ        15.1440   79.3840   29.0690 N.3   186  LYS186     -0.1314
    100  N         11.5390   84.1400   28.8600 N.am  187  THR187     -0.1953
    101  CA        10.4790   83.3090   28.2880 C.3   187  THR187      0.1897
    102  C          9.0730   83.8440   28.5150 C.2   187  THR187      0.2313
    103  O          8.2830   83.9970   27.5780 O.2   187  THR187     -0.2863
    104  CB        10.5490   81.8820   28.8810 C.3   187  THR187      0.1794
    105  OG1       11.5780   81.1380   28.2120 O.3   187  THR187     -0.2208
    106  CG2        9.2380   81.1530   28.6400 C.3   187  THR187      0.0378
    107  N          8.0120   87.3930   26.5110 N.3   190  TYR190     -0.1241
    108  CA         7.7190   87.4820   25.0810 C.3   190  TYR190      0.1605
    109  C          6.8330   86.3600   24.5810 C.2   190  TYR190      0.2264
    110  O          6.2670   86.4600   23.4850 O.2   190  TYR190     -0.2867
    111  CB         9.0380   87.5130   24.3010 C.3   190  TYR190      0.0534
    112  CG         9.4980   86.1430   23.8620 C.ar  190  TYR190     -0.0201
    113  CD1       10.0340   85.2510   24.7850 C.ar  190  TYR190     -0.0009
    114  CD2        9.3950   85.7480   22.5350 C.ar  190  TYR190     -0.0009
    115  CE1       10.4560   83.9990   24.3830 C.ar  190  TYR190      0.0417
    116  CE2        9.8140   84.4970   22.1270 C.ar  190  TYR190      0.0417
    117  CZ        10.3450   83.6280   23.0600 C.ar  190  TYR190      0.1957
    118  OH        10.7700   82.3760   22.6710 O.3   190  TYR190     -0.2866
    119  N          8.1430   77.4600   30.8930 N.3   226  GLN226     -0.1245
    120  CA         9.5880   77.2340   30.7950 C.3   226  GLN226      0.1566
    121  C          9.9530   75.9870   31.6020 C.2   226  GLN226      0.2260
    122  O         10.7120   75.1360   31.1450 O.2   226  GLN226     -0.2867
    123  CB        10.3820   78.4390   31.2780 C.3   226  GLN226      0.0367
    124  CG        11.8820   78.3650   31.0520 C.3   226  GLN226      0.0905
    125  CD        12.2630   77.9070   29.6610 C.2   226  GLN226      0.2608
    126  OE1       11.5170   78.0820   28.7000 O.2   226  GLN226     -0.2717
    127  NE2       13.4400   77.3020   29.5270 N.am  226  GLN226     -0.0878
    128  N          9.5790   73.3010   29.5830 N.3   229  ASP229     -0.1225
    129  CA        10.6840   73.1830   28.6430 C.3   229  ASP229      0.1805
    130  C         11.8730   72.4850   29.2970 C.2   229  ASP229      0.2597
    131  O         12.5220   71.6330   28.6910 O.2   229  ASP229     -0.2718
    132  CB        11.1030   74.5570   28.1190 C.3   229  ASP229      0.1424
    133  CG        11.8410   74.4570   26.7970 C.2   229  ASP229      0.3668
    134  OD1       11.1700   74.3010   25.7570 O.co2 229  ASP229     -0.2456
    135  OD2       13.0880   74.5260   26.8000 O.co2 229  ASP229     -0.2456
    136  N         12.1390   72.8590   30.5450 N.am  230  ASP230     -0.1974
    137  CA        13.2020   72.2310   31.3190 C.3   230  ASP230      0.1709
    138  C         13.0370   70.7170   31.3690 C.2   230  ASP230      0.2293
    139  O         13.9620   69.9790   31.0400 O.2   230  ASP230     -0.2864
    140  CB        13.2260   72.7940   32.7440 C.3   230  ASP230      0.1436
    141  CG        13.8310   74.1880   32.7520 C.2   230  ASP230      0.3671
    142  OD1       14.3340   74.6060   31.6860 O.co2 230  ASP230     -0.2456
    143  OD2       13.7920   74.8320   33.8200 O.co2 230  ASP230     -0.2456
    144  N         14.1230   68.2010   19.1960 N.3   243  LYS243     -0.1245
    145  CA        15.3820   68.7830   19.6410 C.3   243  LYS243      0.1561
    146  C         15.9220   68.0340   20.8550 C.2   243  LYS243      0.2260
    147  O         15.1460   67.3900   21.5650 O.2   243  LYS243     -0.2867
    148  CB        15.1880   70.2630   19.9740 C.3   243  LYS243      0.0271
    149  CG        15.6290   70.9310   21.2210 C.3   243  LYS243      0.0035
    150  CD        14.4770   71.0770   22.2120 C.3   243  LYS243      0.0206
    151  CE        14.6180   72.2810   23.1270 C.3   243  LYS243      0.1093
    152  NZ        13.4250   72.4800   24.0320 N.3   243  LYS243     -0.1314
    153  N         20.8650   70.9810   28.5630 N.3   247  ASP247     -0.1239
    154  CA        20.8360   71.6980   29.8310 C.3   247  ASP247      0.1674
    155  C         21.9170   71.2270   30.7920 C.2   247  ASP247      0.2266
    156  O         22.6190   72.0420   31.3970 O.2   247  ASP247     -0.2867
    157  CB        19.4540   71.5500   30.4760 C.3   247  ASP247      0.1410
    158  CG        18.4210   72.5120   29.9250 C.2   247  ASP247      0.3668
    159  OD1       18.5860   73.0030   28.7890 O.co2 247  ASP247     -0.2456
    160  OD2       17.4240   72.7820   30.6290 O.co2 247  ASP247     -0.2456
    161  N         23.3150   74.5610   32.6750 N.3   252  LYS252     -0.1245
    162  CA        22.2270   75.5190   32.8060 C.3   252  LYS252      0.1561
    163  C         21.6610   75.4850   34.2190 C.2   252  LYS252      0.2260
    164  O         21.9510   74.5530   34.9690 O.2   252  LYS252     -0.2867
    165  CB        21.1450   75.2090   31.7710 C.3   252  LYS252      0.0271
    166  CG        21.5450   75.5670   30.3460 C.3   252  LYS252      0.0035
    167  CD        21.6750   77.0760   30.1910 C.3   252  LYS252      0.0206
    168  CE        22.0820   77.4500   28.7710 C.3   252  LYS252      0.1093
    169  NZ        22.5180   76.2540   27.9930 N.3   252  LYS252     -0.1314
@<TRIPOS>BOND
     1    59    58    2
     2    58    57    1
     3    56    57    1
     4    61    60    1
     5    61    62    1
     6    60    57    1
     7    14    15    2
     8    14    13    1
     9    38    37    1
    10    62    63    1
    11    12    13    1
    12    36    37    1
    13    36    33    1
    14    34    35    2
    15    34    33    1
    16    13    16    1
    17    16    17    1
    18    21    22    1
    19    37    39    1
    20    63    64    2
    21    33    32    1
    22    17    18    1
    23    32    23   am
    24     3     4    2
    25     3     2    1
    26    20    18   am
    27    23    22    1
    28    23    24    2
    29   144   145    1
    30    22    25    1
    31    18    19    2
    32    64    65    1
    33    64    66    1
    34    40    41    1
    35   145   148    1
    36   145   146    1
    37     1     2    1
    38     5     2    1
    39     5     6    1
    40   148   149    1
    41     6     7    1
    42    25    26    1
    43     7     8    1
    44    42    41    1
    45    42    43    2
    46    41    44    1
    47    26    27   ar
    48    26    28   ar
    49   146   147    2
    50    27    29   ar
    51    44    45    1
    52   149   150    1
    53    28    30   ar
    54    10     9    1
    55    29    31   ar
    56    30    31   ar
    57     8     9    2
    58   116   114   ar
    59   116   117   ar
    60     9    11    1
    61   150   151    1
    62   114   112   ar
    63    45    47   ar
    64    45    46   ar
    65   118   117    1
    66    48    49    1
    67    50    51    2
    68    50    49    1
    69   117   115   ar
    70   151   152    1
    71   110   109    2
    72    49    52    1
    73    55    53   ar
    74    82    80   am
    75   112   111    1
    76   112   113   ar
    77    52    53    1
    78    81    80    2
    79   111   108    1
    80   115   113   ar
    81    80    79    1
    82    53    54   ar
    83   109   108    1
    84    72    71    1
    85    73    71    1
    86   108   107    1
    87    71    68    1
    88   134   133   ar
    89    79    78    1
    90    68    69    1
    91    68    67    1
    92    69    70    2
    93    78    75    1
    94   133   135   ar
    95   133   132    1
    96    94    93    2
    97   103   102    2
    98   169   168    1
    99   132   129    1
   100    93    92    1
   101    93   100   am
   102   105   104    1
   103    75    74    1
   104    75    76    1
   105   101   102    1
   106   101   100    1
   107   101   104    1
   108   153   154    1
   109   106   104    1
   110   129   130    1
   111   129   128    1
   112   131   130    2
   113   126   125    2
   114    92    95    1
   115    92    91    1
   116   168   167    1
   117   159   158   ar
   118    95    96    1
   119    76    77    2
   120    97    96    1
   121    97    98    1
   122    99    98    1
   123   130   136   am
   124    90    88   ar
   125   127   125   am
   126   125   124    1
   127   154   157    1
   128   154   155    1
   129   158   157    1
   130   158   160   ar
   131   167   166    1
   132   166   165    1
   133   136   137    1
   134    87    88    1
   135    87    84    1
   136    88    89   ar
   137   155   156    2
   138   120   119    1
   139   120   123    1
   140   120   121    1
   141   139   138    2
   142   124   123    1
   143   122   121    2
   144   137   138    1
   145   137   140    1
   146    85    84    1
   147    85    86    2
   148   142   141   ar
   149   165   162    1
   150    84    83    1
   151   161   162    1
   152   140   141    1
   153   141   143   ar
   154   162   163    1
   155   163   164    2
