@<TRIPOS>MOLECULE
tmp/2oppA00.pdb
 144 142 0 0 0
SMALL
GASTEIGER

@<TRIPOS>ATOM
      1  N          9.0070  -31.7860   23.6430 N.3    85  PRO85      -0.2116
      2  CA         8.5400  -31.4980   22.2930 C.3    85  PRO85       0.1372
      3  C          7.5270  -30.3780   22.2190 C.2    85  PRO85       0.2244
      4  O          6.8470  -30.0760   23.1880 O.2    85  PRO85      -0.2868
      5  CB         7.9800  -32.8390   21.8340 C.3    85  PRO85       0.0268
      6  CG         7.5810  -33.4980   23.1000 C.3    85  PRO85       0.0207
      7  CD         8.6590  -33.1520   24.0620 C.3    85  PRO85       0.0892
      8  N          4.4090  -32.6240   16.8050 N.3    90  LEU90      -0.1231
      9  CA         3.7390  -33.9070   17.0300 C.3    90  LEU90       0.1693
     10  C          2.9460  -34.3340   15.8140 C.2    90  LEU90       0.2591
     11  O          2.5620  -33.5200   14.9760 O.2    90  LEU90      -0.2718
     12  CB         2.7760  -33.8090   18.2020 C.3    90  LEU90       0.0284
     13  CG         3.4090  -33.4050   19.5190 C.3    90  LEU90       0.0019
     14  CD1        2.3220  -33.3330   20.6320 C.3    90  LEU90       0.0001
     15  CD2        4.4860  -34.4280   19.8660 C.3    90  LEU90       0.0001
     16  N          2.6850  -35.6220   15.7040 N.am   91  LYS91      -0.1980
     17  CA         1.9060  -36.0700   14.5710 C.3    91  LYS91       0.1596
     18  C          0.4710  -36.3590   15.0000 C.2    91  LYS91       0.2287
     19  O          0.1790  -36.5410   16.1790 O.2    91  LYS91      -0.2864
     20  CB         2.5710  -37.2830   13.9460 C.3    91  LYS91       0.0298
     21  CG         3.8640  -36.9140   13.2510 C.3    91  LYS91       0.0038
     22  CD         4.9180  -37.9770   13.4620 C.3    91  LYS91       0.0206
     23  CE         6.3080  -37.3500   13.5940 C.3    91  LYS91       0.1093
     24  NZ         6.4050  -36.3930   14.7480 N.3    91  LYS91      -0.1314
     25  N         -2.7360  -38.4600   15.5670 N.3    93  LYS93      -0.1245
     26  CA        -2.9600  -39.8560   15.8640 C.3    93  LYS93       0.1561
     27  C         -4.4550  -40.0670   15.9670 C.2    93  LYS93       0.2260
     28  O         -5.1980  -39.1130   16.1800 O.2    93  LYS93      -0.2867
     29  CB        -2.2700  -40.2200   17.1790 C.3    93  LYS93       0.0271
     30  CG        -0.7700  -40.2440   17.0550 C.3    93  LYS93       0.0035
     31  CD        -0.3390  -41.4650   16.2670 C.3    93  LYS93       0.0206
     32  CE         1.0400  -41.2800   15.6660 C.3    93  LYS93       0.1093
     33  NZ         0.9610  -40.2970   14.5510 N.3    93  LYS93      -0.1314
     34  N         -4.7490  -41.6420   21.5700 N.3    96  VAL96      -0.1245
     35  CA        -3.6030  -41.3220   22.4180 C.3    96  VAL96       0.1561
     36  C         -3.9970  -41.5940   23.8540 C.2    96  VAL96       0.2260
     37  O         -4.9520  -41.0090   24.3590 O.2    96  VAL96      -0.2867
     38  CB        -3.1780  -39.8430   22.3510 C.3    96  VAL96       0.0252
     39  CG1       -2.0130  -39.6430   23.2570 C.3    96  VAL96       0.0019
     40  CG2       -2.7990  -39.4440   20.9250 C.3    96  VAL96       0.0019
     41  N          3.4610  -44.7700   18.5550 N.3   169  VAL169     -0.1245
     42  CA         4.3760  -43.7310   18.9810 C.3   169  VAL169      0.1561
     43  C          4.3300  -43.7110   20.5090 C.2   169  VAL169      0.2260
     44  O          3.2480  -43.7020   21.1040 O.2   169  VAL169     -0.2867
     45  CB         3.9470  -42.3590   18.3740 C.3   169  VAL169      0.0252
     46  CG1        4.7650  -41.2250   18.9350 C.3   169  VAL169      0.0019
     47  CG2        4.1280  -42.4050   16.8680 C.3   169  VAL169      0.0019
     48  N          5.9660  -41.7320   23.9270 N.3   171  TYR171     -0.1241
     49  CA         6.7550  -40.6570   24.4900 C.3   171  TYR171      0.1605
     50  C          6.8590  -40.7670   25.9880 C.2   171  TYR171      0.2264
     51  O          5.8480  -40.7830   26.7000 O.2   171  TYR171     -0.2867
     52  CB         6.1680  -39.2970   24.0930 C.3   171  TYR171      0.0534
     53  CG         6.7960  -38.1050   24.8090 C.ar  171  TYR171     -0.0201
     54  CD1        6.1590  -37.5140   25.9070 C.ar  171  TYR171     -0.0009
     55  CD2        8.0200  -37.5580   24.3860 C.ar  171  TYR171     -0.0009
     56  CE1        6.7030  -36.4160   26.5630 C.ar  171  TYR171      0.0417
     57  CE2        8.5640  -36.4680   25.0350 C.ar  171  TYR171      0.0417
     58  CZ         7.8980  -35.9000   26.1170 C.ar  171  TYR171      0.1957
     59  OH         8.4040  -34.7960   26.7230 O.3   171  TYR171     -0.2866
     60  N          2.9960  -41.4100   27.3350 N.3   178  TYR178     -0.1227
     61  CA         1.9930  -41.0700   26.3220 C.3   178  TYR178      0.1736
     62  C          2.1160  -42.0280   25.1480 C.2   178  TYR178      0.2595
     63  O          3.1200  -42.0210   24.4600 O.2   178  TYR178     -0.2718
     64  CB         2.1800  -39.6300   25.8340 C.3   178  TYR178      0.0548
     65  CG         1.8340  -38.5680   26.8560 C.ar  178  TYR178     -0.0200
     66  CD1        2.7120  -38.2500   27.8960 C.ar  178  TYR178     -0.0009
     67  CD2        0.6320  -37.8610   26.7670 C.ar  178  TYR178     -0.0009
     68  CE1        2.3980  -37.2450   28.8170 C.ar  178  TYR178      0.0417
     69  CE2        0.3080  -36.8540   27.6840 C.ar  178  TYR178      0.0417
     70  CZ         1.1920  -36.5510   28.6990 C.ar  178  TYR178      0.1957
     71  OH         0.8780  -35.5460   29.5840 O.3   178  TYR178     -0.2866
     72  N          1.0860  -42.8450   24.9300 N.am  179  VAL179     -0.1966
     73  CA         1.0780  -43.8480   23.8640 C.3   179  VAL179      0.1727
     74  C          0.0540  -43.5130   22.7800 C.2   179  VAL179      0.2616
     75  O         -1.1300  -43.3170   23.0730 O.2   179  VAL179     -0.2715
     76  CB         0.7740  -45.2240   24.4690 C.3   179  VAL179      0.0290
     77  CG1        0.9500  -46.3560   23.4230 C.3   179  VAL179      0.0023
     78  CG2        1.7010  -45.4380   25.6710 C.3   179  VAL179      0.0023
     79  N          0.5080  -43.4430   21.5290 N.am  180  GLY180     -0.1955
     80  CA        -0.4050  -43.0970   20.4490 C.3   180  GLY180      0.1869
     81  C         -0.3100  -43.9380   19.1960 C.2   180  GLY180      0.2309
     82  O          0.7350  -44.5290   18.8950 O.2   180  GLY180     -0.2863
     83  N         -5.4350  -33.6100   26.6340 N.3   217  PHE217     -0.1241
     84  CA        -4.3680  -33.7600   27.6190 C.3   217  PHE217      0.1605
     85  C         -3.7380  -32.4060   27.9480 C.2   217  PHE217      0.2264
     86  O         -3.2030  -31.7230   27.0710 O.2   217  PHE217     -0.2867
     87  CB        -3.3030  -34.7110   27.0940 C.3   217  PHE217      0.0534
     88  CG        -3.7780  -36.1090   26.9560 C.ar  217  PHE217     -0.0203
     89  CD1       -4.0790  -36.8610   28.0760 C.ar  217  PHE217     -0.0042
     90  CD2       -3.9210  -36.6860   25.7040 C.ar  217  PHE217     -0.0042
     91  CE1       -4.5140  -38.1720   27.9480 C.ar  217  PHE217     -0.0003
     92  CE2       -4.3540  -37.9980   25.5660 C.ar  217  PHE217     -0.0003
     93  CZ        -4.6510  -38.7420   26.6860 C.ar  217  PHE217     -0.0000
     94  N         -0.9090  -30.4370   28.9410 N.3   219  TRP219     -0.1241
     95  CA         0.5240  -30.6560   29.0710 C.3   219  TRP219      0.1605
     96  C          1.4250  -29.4450   28.7540 C.2   219  TRP219      0.2264
     97  O          1.3110  -28.7790   27.6970 O.2   219  TRP219     -0.2867
     98  CB         0.8800  -31.8770   28.2050 C.3   219  TRP219      0.0550
     99  CG         2.3220  -32.2080   28.0640 C.ar  219  TRP219      0.0003
    100  CD1        3.0600  -33.0300   28.8470 C.ar  219  TRP219      0.0946
    101  CD2        3.1800  -31.7730   27.0160 C.ar  219  TRP219      0.0152
    102  NE1        4.3400  -33.1470   28.3470 N.ar  219  TRP219     -0.2442
    103  CE2        4.4350  -32.3790   27.2210 C.ar  219  TRP219      0.0810
    104  CE3        3.0060  -30.9260   25.9180 C.ar  219  TRP219      0.0012
    105  CZ2        5.5120  -32.1670   26.3680 C.ar  219  TRP219      0.0191
    106  CZ3        4.0780  -30.7130   25.0690 C.ar  219  TRP219      0.0001
    107  CH2        5.3160  -31.3340   25.3000 C.ar  219  TRP219      0.0015
    108  N         -3.8630  -30.6980   24.4890 N.3   224  LEU224     -0.1231
    109  CA        -3.7240  -31.6840   23.4200 C.3   224  LEU224      0.1693
    110  C         -4.8490  -32.6390   23.1170 C.2   224  LEU224      0.2592
    111  O         -5.3130  -33.3820   23.9820 O.2   224  LEU224     -0.2718
    112  CB        -2.4730  -32.5200   23.6600 C.3   224  LEU224      0.0284
    113  CG        -1.2050  -31.6880   23.7560 C.3   224  LEU224      0.0019
    114  CD1       -0.0500  -32.6130   23.9940 C.3   224  LEU224      0.0001
    115  CD2       -1.0210  -30.8740   22.4790 C.3   224  LEU224      0.0001
    116  N         -5.2360  -32.6490   21.8490 N.am  225  HIS225     -0.1962
    117  CA        -6.2750  -33.5290   21.3390 C.3   225  HIS225      0.1772
    118  C         -5.5820  -34.5100   20.3990 C.2   225  HIS225      0.2462
    119  O         -4.4610  -34.2640   19.9710 O.2   225  HIS225     -0.2730
    120  CB        -7.2920  -32.7280   20.5300 C.3   225  HIS225      0.0785
    121  CG        -8.1360  -31.8000   21.3480 C.ar  225  HIS225      0.0821
    122  ND1       -9.2240  -32.2300   22.0760 N.ar  225  HIS225     -0.2267
    123  CD2       -8.0790  -30.4570   21.5120 C.ar  225  HIS225      0.1154
    124  CE1       -9.8040  -31.1900   22.6470 C.ar  225  HIS225      0.1986
    125  NE2       -9.1290  -30.1040   22.3220 N.ar  225  HIS225     -0.2212
    126  N         -6.2280  -35.6440   20.0770 N.am  226  PRO226     -0.2727
    127  CA        -5.5450  -36.5550   19.1640 C.3   226  PRO226      0.1402
    128  C         -5.2860  -35.8720   17.8140 C.2   226  PRO226      0.2269
    129  O         -4.2680  -36.1180   17.1620 O.2   226  PRO226     -0.2865
    130  CB        -6.5290  -37.7140   19.0460 C.3   226  PRO226      0.0296
    131  CG        -7.1210  -37.7740   20.3900 C.3   226  PRO226      0.0237
    132  CD        -7.3930  -36.3090   20.6880 C.3   226  PRO226      0.0939
    133  N         -1.5620  -30.6700   13.4910 N.3   307  TYR307     -0.1241
    134  CA        -0.2750  -31.2990   13.6860 C.3   307  TYR307      0.1605
    135  C          0.4690  -31.3700   12.3800 C.2   307  TYR307      0.2264
    136  O         -0.0640  -31.0690   11.3100 O.2   307  TYR307     -0.2867
    137  CB        -0.4240  -32.7150   14.2670 C.3   307  TYR307      0.0534
    138  CG        -0.9410  -32.7070   15.6810 C.ar  307  TYR307     -0.0201
    139  CD1       -0.2310  -32.0530   16.7010 C.ar  307  TYR307     -0.0009
    140  CD2       -2.1540  -33.3400   16.0090 C.ar  307  TYR307     -0.0009
    141  CE1       -0.7150  -32.0280   18.0240 C.ar  307  TYR307      0.0417
    142  CE2       -2.6530  -33.3260   17.3300 C.ar  307  TYR307      0.0417
    143  CZ        -1.9290  -32.6650   18.3240 C.ar  307  TYR307      0.1957
    144  OH        -2.4290  -32.6030   19.5920 O.3   307  TYR307     -0.2866
@<TRIPOS>BOND
     1   136   135    2
     2   135   134    1
     3    21    22    1
     4    21    20    1
     5    22    23    1
     6   133   134    1
     7    23    24    1
     8   134   137    1
     9    20    17    1
    10   137   138    1
    11    33    32    1
    12    17    18    1
    13    17    16    1
    14    11    10    2
    15    18    19    2
    16    25    26    1
    17    32    31    1
    18   138   140   ar
    19   138   139   ar
    20    16    10   am
    21    10     9    1
    22    26    27    1
    23    26    29    1
    24    27    28    2
    25   140   142   ar
    26    31    30    1
    27   139   141   ar
    28     8     9    1
    29    47    45    1
    30     9    12    1
    31    30    29    1
    32   129   128    2
    33   142   143   ar
    34   128   127    1
    35   141   143   ar
    36    12    13    1
    37   143   144    1
    38    45    46    1
    39    45    42    1
    40    41    42    1
    41    82    81    2
    42    42    43    1
    43   130   127    1
    44   130   131    1
    45   127   126    1
    46    81    80    1
    47    13    15    1
    48    13    14    1
    49   119   118    2
    50   126   118   am
    51   126   132    1
    52   131   132    1
    53   118   117    1
    54    80    79    1
    55    43    44    2
    56   120   117    1
    57   120   121    1
    58    40    38    1
    59   117   116    1
    60   121   123   ar
    61   121   122   ar
    62   123   125   ar
    63    79    74   am
    64    34    35    1
    65     5     2    1
    66     5     6    1
    67   116   110   am
    68   122   124   ar
    69     3     2    1
    70     3     4    2
    71     2     1    1
    72   125   124   ar
    73    38    35    1
    74    38    39    1
    75    35    36    1
    76   115   113    1
    77    74    75    2
    78    74    73    1
    79     6     7    1
    80   110   109    1
    81   110   111    2
    82   109   112    1
    83   109   108    1
    84    77    76    1
    85     1     7    1
    86   112   113    1
    87   113   114    1
    88    36    37    2
    89    73    76    1
    90    73    72    1
    91    48    49    1
    92    52    49    1
    93    52    53    1
    94    55    53   ar
    95    55    57   ar
    96    63    62    2
    97    76    78    1
    98    49    50    1
    99    53    54   ar
   100    72    62   am
   101    57    58   ar
   102   106   107   ar
   103   106   104   ar
   104    62    61    1
   105   107   105   ar
   106    92    90   ar
   107    92    93   ar
   108    90    88   ar
   109    64    61    1
   110    64    65    1
   111    54    56   ar
   112   104   101   ar
   113    50    51    2
   114    58    56   ar
   115    58    59    1
   116    61    60    1
   117   105   103   ar
   118    83    84    1
   119    93    91   ar
   120    67    65   ar
   121    67    69   ar
   122    65    66   ar
   123    88    87    1
   124    88    89   ar
   125   101   103   ar
   126   101    99   ar
   127    86    85    2
   128    87    84    1
   129   103   102   ar
   130    84    85    1
   131    69    70   ar
   132    97    96    2
   133    66    68   ar
   134    91    89   ar
   135    99    98    1
   136    99   100   ar
   137    98    95    1
   138   102   100   ar
   139    70    68   ar
   140    70    71    1
   141    96    95    1
   142    94    95    1
