@<TRIPOS>MOLECULE
tmp/2opxA02.pdb
 122 113 0 0 0
SMALL
GASTEIGER

@<TRIPOS>ATOM
      1  N        -49.8250   27.8050  -19.4060 N.3    95  ILE95      -0.1245
      2  CA       -50.6590   28.8560  -19.9550 C.3    95  ILE95       0.1561
      3  C        -51.6850   29.3850  -18.9600 C.2    95  ILE95       0.2260
      4  O        -52.2250   28.6420  -18.1390 O.2    95  ILE95      -0.2867
      5  CB       -51.3570   28.3800  -21.2450 C.3    95  ILE95       0.0252
      6  CG1      -52.2860   27.2080  -20.9450 C.3    95  ILE95       0.0019
      7  CG2      -50.3020   27.9570  -22.2670 C.3    95  ILE95       0.0019
      8  CD1      -53.0470   26.7160  -22.1560 C.3    95  ILE95       0.0001
      9  N        -54.8460   30.2230  -19.0060 N.3    97  GLN97      -0.1231
     10  CA       -56.0950   29.4920  -18.8770 C.3    97  GLN97       0.1698
     11  C        -55.9630   28.2060  -18.0730 C.2    97  GLN97       0.2592
     12  O        -56.8590   27.8690  -17.3010 O.2    97  GLN97      -0.2718
     13  CB       -56.6880   29.1920  -20.2560 C.3    97  GLN97       0.0381
     14  CG       -57.0750   30.4410  -21.0240 C.3    97  GLN97       0.0905
     15  CD       -55.9940   30.9040  -21.9800 C.2    97  GLN97       0.2608
     16  OE1      -54.8050   30.9320  -21.6440 O.2    97  GLN97      -0.2717
     17  NE2      -56.4050   31.2790  -23.1860 N.am   97  GLN97      -0.0878
     18  N        -54.8540   27.4900  -18.2360 N.am   98  LEU98      -0.1980
     19  CA       -54.6750   26.2450  -17.4980 C.3    98  LEU98       0.1596
     20  C        -54.3980   26.5230  -16.0300 C.2    98  LEU98       0.2287
     21  O        -54.8320   25.7750  -15.1580 O.2    98  LEU98      -0.2864
     22  CB       -53.5390   25.4060  -18.0930 C.3    98  LEU98       0.0297
     23  CG       -53.4170   23.9890  -17.5160 C.3    98  LEU98       0.0022
     24  CD1      -54.7710   23.3200  -17.5580 C.3    98  LEU98       0.0001
     25  CD2      -52.4000   23.1700  -18.3000 C.3    98  LEU98       0.0001
     26  N        -57.7590   27.2970  -14.3610 N.3   101  VAL101     -0.1245
     27  CA       -58.5980   26.1540  -14.0450 C.3   101  VAL101      0.1561
     28  C        -58.0030   25.3770  -12.8910 C.2   101  VAL101      0.2260
     29  O        -58.7280   24.9360  -12.0070 O.2   101  VAL101     -0.2867
     30  CB       -58.8010   25.2020  -15.2600 C.3   101  VAL101      0.0252
     31  CG1      -59.4340   25.9590  -16.4100 C.3   101  VAL101      0.0019
     32  CG2      -57.4880   24.5860  -15.6790 C.3   101  VAL101      0.0019
     33  N        -58.9570   15.6050  -31.7190 N.3   269  LYS269     -0.1245
     34  CA       -59.0320   16.6670  -30.7350 C.3   269  LYS269      0.1561
     35  C        -58.6790   16.1530  -29.3500 C.2   269  LYS269      0.2260
     36  O        -57.8710   16.7550  -28.6480 O.2   269  LYS269     -0.2867
     37  CB       -60.4250   17.2900  -30.7070 C.3   269  LYS269      0.0271
     38  CG       -60.4810   18.5050  -29.8080 C.3   269  LYS269      0.0035
     39  CD       -61.8500   19.1280  -29.7700 C.3   269  LYS269      0.0206
     40  CE       -61.8310   20.3520  -28.8740 C.3   269  LYS269      0.1093
     41  NZ       -61.3380   20.0070  -27.5160 N.3   269  LYS269     -0.1314
     42  N        -55.3560   17.4480  -27.4300 N.3   273  ASP273     -0.1239
     43  CA       -55.6000   18.1030  -26.1520 C.3   273  ASP273      0.1674
     44  C        -54.8780   17.3350  -25.0500 C.2   273  ASP273      0.2266
     45  O        -54.0690   17.8980  -24.3120 O.2   273  ASP273     -0.2867
     46  CB       -57.0990   18.1450  -25.8470 C.3   273  ASP273      0.1410
     47  CG       -57.8200   19.2630  -26.5890 C.2   273  ASP273      0.3668
     48  OD1      -59.0700   19.3160  -26.5170 O.co2 273  ASP273     -0.2456
     49  OD2      -57.1390   20.0910  -27.2360 O.co2 273  ASP273     -0.2456
     50  N        -50.9510   17.7480  -25.7280 N.3   276  VAL276     -0.1231
     51  CA       -50.3480   19.0600  -25.7170 C.3   276  VAL276      0.1692
     52  C        -50.5620   19.8250  -24.4160 C.2   276  VAL276      0.2591
     53  O        -49.8340   20.7740  -24.1250 O.2   276  VAL276     -0.2718
     54  CB       -50.8770   19.8750  -26.9110 C.3   276  VAL276      0.0266
     55  CG1      -52.2430   20.4460  -26.5920 C.3   276  VAL276      0.0020
     56  CG2      -49.8940   20.9460  -27.2750 C.3   276  VAL276      0.0020
     57  N        -51.5450   19.4080  -23.6250 N.am  277  ILE277     -0.1980
     58  CA       -51.8270   20.0890  -22.3640 C.3   277  ILE277      0.1595
     59  C        -50.5840   20.1530  -21.4760 C.2   277  ILE277      0.2287
     60  O        -49.8450   19.1720  -21.3360 O.2   277  ILE277     -0.2864
     61  CB       -52.9880   19.4000  -21.5930 C.3   277  ILE277      0.0276
     62  CG1      -53.3210   20.1980  -20.3300 C.3   277  ILE277      0.0022
     63  CG2      -52.6240   17.9590  -21.2560 C.3   277  ILE277      0.0022
     64  CD1      -54.5810   19.7320  -19.6400 C.3   277  ILE277      0.0001
     65  N        -49.7400   26.3830  -30.9200 N.3   311  GLN311     -0.1245
     66  CA       -48.7870   27.4660  -30.7130 C.3   311  GLN311      0.1566
     67  C        -48.2560   27.4360  -29.2830 C.2   311  GLN311      0.2260
     68  O        -48.9750   27.0690  -28.3540 O.2   311  GLN311     -0.2867
     69  CB       -49.4580   28.8190  -30.9910 C.3   311  GLN311      0.0367
     70  CG       -49.7520   29.0950  -32.4660 C.3   311  GLN311      0.0905
     71  CD       -48.5410   29.6340  -33.2210 C.2   311  GLN311      0.2608
     72  OE1      -48.1410   30.7910  -33.0360 O.2   311  GLN311     -0.2717
     73  NE2      -47.9490   28.7960  -34.0720 N.am  311  GLN311     -0.0878
     74  N        -51.9870   34.8170  -24.3170 N.3   319  ASN319     -0.1225
     75  CA       -53.0920   33.9830  -23.8610 C.3   319  ASN319      0.1785
     76  C        -53.6960   33.2820  -25.0730 C.2   319  ASN319      0.2597
     77  O        -54.7830   32.7160  -25.0020 O.2   319  ASN319     -0.2718
     78  CB       -54.1470   34.8410  -23.1580 C.3   319  ASN319      0.1169
     79  CG       -54.6450   35.9770  -24.0270 C.2   319  ASN319      0.2627
     80  OD1      -53.8530   36.6950  -24.6390 O.2   319  ASN319     -0.2716
     81  ND2      -55.9600   36.1530  -24.0800 N.am  319  ASN319     -0.0877
     82  N        -52.9630   33.3240  -26.1840 N.am  320  ASP320     -0.1960
     83  CA       -53.3900   32.7150  -27.4400 C.3   320  ASP320      0.1840
     84  C        -52.5690   31.4720  -27.7700 C.2   320  ASP320      0.2622
     85  O        -52.6520   30.9430  -28.8780 O.2   320  ASP320     -0.2715
     86  CB       -53.2580   33.7260  -28.5830 C.3   320  ASP320      0.1450
     87  CG       -51.8070   33.9940  -28.9680 C.2   320  ASP320      0.3671
     88  OD1      -50.9770   34.2470  -28.0660 O.co2 320  ASP320     -0.2456
     89  OD2      -51.4980   33.9580  -30.1810 O.co2 320  ASP320     -0.2456
     90  N        -51.7740   31.0130  -26.8100 N.am  321  ILE321     -0.1963
     91  CA       -50.9520   29.8280  -27.0070 C.3   321  ILE321      0.1727
     92  C        -51.5330   28.6360  -26.2620 C.2   321  ILE321      0.2616
     93  O        -52.2910   28.7980  -25.3080 O.2   321  ILE321     -0.2715
     94  CB       -49.5120   30.0510  -26.5210 C.3   321  ILE321      0.0290
     95  CG1      -49.5210   30.5600  -25.0810 C.3   321  ILE321      0.0022
     96  CG2      -48.8100   31.0390  -27.4240 C.3   321  ILE321      0.0023
     97  CD1      -48.1440   30.6880  -24.4750 C.3   321  ILE321      0.0001
     98  N        -51.1710   27.4380  -26.7050 N.am  322  ALA322     -0.1977
     99  CA       -51.6550   26.2090  -26.0920 C.3   322  ALA322      0.1597
    100  C        -50.6140   25.6320  -25.1470 C.2   322  ALA322      0.2287
    101  O        -50.9490   24.8800  -24.2370 O.2   322  ALA322     -0.2864
    102  CB       -51.9940   25.1870  -27.1720 C.3   322  ALA322      0.0319
    103  N        -61.2130   13.2520  -24.0700 N.3   438  GLU438     -0.1245
    104  CA       -59.8490   13.4970  -23.6030 C.3   438  GLU438      0.1567
    105  C        -59.5870   12.9910  -22.1880 C.2   438  GLU438      0.2260
    106  O        -60.5070   12.8370  -21.3840 O.2   438  GLU438     -0.2867
    107  CB       -59.4990   14.9910  -23.7050 C.3   438  GLU438      0.0388
    108  CG       -60.1650   15.9030  -22.6820 C.3   438  GLU438      0.1160
    109  CD       -61.6350   16.1700  -22.9610 C.2   438  GLU438      0.3649
    110  OE1      -62.2410   16.9640  -22.2040 O.co2 438  GLU438     -0.2457
    111  OE2      -62.1850   15.6010  -23.9300 O.co2 438  GLU438     -0.2457
    112  N        -59.0480   13.5640  -18.9280 N.3   440  PHE440     -0.1241
    113  CA       -59.1250   14.4880  -17.7950 C.3   440  PHE440      0.1605
    114  C        -59.9190   13.8260  -16.6630 C.2   440  PHE440      0.2264
    115  O        -61.1360   13.6760  -16.7690 O.2   440  PHE440     -0.2867
    116  CB       -59.8140   15.7950  -18.2160 C.3   440  PHE440      0.0534
    117  CG       -59.0390   16.6040  -19.2280 C.ar  440  PHE440     -0.0203
    118  CD1      -59.6380   17.6870  -19.8680 C.ar  440  PHE440     -0.0042
    119  CD2      -57.7120   16.2940  -19.5380 C.ar  440  PHE440     -0.0042
    120  CE1      -58.9300   18.4490  -20.8030 C.ar  440  PHE440     -0.0003
    121  CE2      -56.9920   17.0490  -20.4720 C.ar  440  PHE440     -0.0003
    122  CZ       -57.6040   18.1280  -21.1050 C.ar  440  PHE440     -0.0000
@<TRIPOS>BOND
     1    73    71   am
     2    71    72    2
     3    71    70    1
     4    70    69    1
     5    33    34    1
     6    69    66    1
     7    65    66    1
     8    34    37    1
     9    34    35    1
    10    66    67    1
    11    37    38    1
    12    89    87   ar
    13    38    39    1
    14    39    40    1
    15    35    36    2
    16    67    68    2
    17    87    86    1
    18    87    88   ar
    19    85    84    2
    20    40    41    1
    21    86    83    1
    22    84    83    1
    23    84    90   am
    24    83    82    1
    25    42    43    1
    26    96    94    1
    27    56    54    1
    28    49    47   ar
    29   102    99    1
    30    91    90    1
    31    91    94    1
    32    91    92    1
    33    54    55    1
    34    54    51    1
    35    98    92   am
    36    98    99    1
    37    47    48   ar
    38    47    46    1
    39    94    95    1
    40    92    93    2
    41    82    76   am
    42    43    46    1
    43    43    44    1
    44    99   100    1
    45    50    51    1
    46    51    52    1
    47   100   101    2
    48    95    97    1
    49    76    77    2
    50    76    75    1
    51    44    45    2
    52    80    79    2
    53    52    53    2
    54    52    57   am
    55    74    75    1
    56    81    79   am
    57   103   104    1
    58    79    78    1
    59   111   109   ar
    60    75    78    1
    61   107   104    1
    62   107   108    1
    63    57    58    1
    64   104   105    1
    65    17    15   am
    66   109   108    1
    67   109   110   ar
    68    58    61    1
    69    58    59    1
    70     7     5    1
    71   105   106    2
    72     8     6    1
    73    15    16    2
    74    15    14    1
    75    61    63    1
    76    61    62    1
    77    59    60    2
    78     5     6    1
    79     5     2    1
    80   122   120   ar
    81   122   121   ar
    82    14    13    1
    83   120   118   ar
    84   121   119   ar
    85    62    64    1
    86    13    10    1
    87     2     1    1
    88     2     3    1
    89   118   117   ar
    90   119   117   ar
    91   117   116    1
    92     9    10    1
    93     3     4    2
    94   112   113    1
    95    10    11    1
    96    25    23    1
    97    18    11   am
    98    18    19    1
    99   116   113    1
   100    22    23    1
   101    22    19    1
   102    11    12    2
   103   113   114    1
   104    24    23    1
   105    19    20    1
   106   115   114    2
   107    31    30    1
   108    20    21    2
   109    32    30    1
   110    30    27    1
   111    26    27    1
   112    27    28    1
   113    28    29    2
