@<TRIPOS>MOLECULE
tmp/2opxA00.pdb
 136 129 0 0 0
SMALL
GASTEIGER

@<TRIPOS>ATOM
      1  N        -54.8540   27.4900  -18.2360 N.3    98  LEU98      -0.1245
      2  CA       -54.6750   26.2450  -17.4980 C.3    98  LEU98       0.1561
      3  C        -54.3980   26.5230  -16.0300 C.2    98  LEU98       0.2260
      4  O        -54.8320   25.7750  -15.1580 O.2    98  LEU98      -0.2867
      5  CB       -53.5390   25.4060  -18.0930 C.3    98  LEU98       0.0270
      6  CG       -53.4170   23.9890  -17.5160 C.3    98  LEU98       0.0019
      7  CD1      -54.7710   23.3200  -17.5580 C.3    98  LEU98       0.0001
      8  CD2      -52.4000   23.1700  -18.3000 C.3    98  LEU98       0.0001
      9  N        -57.7590   27.2970  -14.3610 N.3   101  VAL101     -0.1231
     10  CA       -58.5980   26.1540  -14.0450 C.3   101  VAL101      0.1692
     11  C        -58.0030   25.3770  -12.8910 C.2   101  VAL101      0.2591
     12  O        -58.7280   24.9360  -12.0070 O.2   101  VAL101     -0.2718
     13  CB       -58.8010   25.2020  -15.2600 C.3   101  VAL101      0.0266
     14  CG1      -59.4340   25.9590  -16.4100 C.3   101  VAL101      0.0020
     15  CG2      -57.4880   24.5860  -15.6790 C.3   101  VAL101      0.0020
     16  N        -56.6850   25.2190  -12.8860 N.am  102  GLU102     -0.1979
     17  CA       -56.0400   24.4900  -11.8040 C.3   102  GLU102      0.1602
     18  C        -56.4710   25.0870  -10.4710 C.2   102  GLU102      0.2287
     19  O        -56.9060   24.3660   -9.5690 O.2   102  GLU102     -0.2864
     20  CB       -54.5160   24.5550  -11.9330 C.3   102  GLU102      0.0415
     21  CG       -53.7830   24.1260  -10.6680 C.3   102  GLU102      0.1163
     22  CD       -52.3340   23.7390  -10.9110 C.2   102  GLU102      0.3649
     23  OE1      -51.7130   24.2720  -11.8550 O.co2 102  GLU102     -0.2457
     24  OE2      -51.8080   22.9070  -10.1430 O.co2 102  GLU102     -0.2457
     25  N        -60.2700   24.6260   -9.9790 N.3   105  PHE105     -0.1241
     26  CA       -60.5550   23.2210   -9.7120 C.3   105  PHE105      0.1605
     27  C        -60.0900   22.8400   -8.3130 C.2   105  PHE105      0.2264
     28  O        -60.7920   22.1290   -7.5950 O.2   105  PHE105     -0.2867
     29  CB       -59.8730   22.3270  -10.7550 C.3   105  PHE105      0.0534
     30  CG       -60.1540   20.8640  -10.5750 C.ar  105  PHE105     -0.0203
     31  CD1      -59.1960   20.0200  -10.0210 C.ar  105  PHE105     -0.0042
     32  CD2      -61.3840   20.3300  -10.9440 C.ar  105  PHE105     -0.0042
     33  CE1      -59.4600   18.6630   -9.8380 C.ar  105  PHE105     -0.0003
     34  CE2      -61.6570   18.9760  -10.7650 C.ar  105  PHE105     -0.0003
     35  CZ       -60.6930   18.1410  -10.2110 C.ar  105  PHE105     -0.0000
     36  N        -48.5860   20.2370  -11.7510 N.3   152  PHE152     -0.1241
     37  CA       -49.8500   20.7580  -11.2200 C.3   152  PHE152      0.1605
     38  C        -49.6400   20.9130   -9.7170 C.2   152  PHE152      0.2264
     39  O        -50.3680   20.3420   -8.9060 O.2   152  PHE152     -0.2867
     40  CB       -51.0130   19.8160  -11.5100 C.3   152  PHE152      0.0534
     41  CG       -51.4910   19.8780  -12.9290 C.ar  152  PHE152     -0.0203
     42  CD1      -50.9900   18.9990  -13.8920 C.ar  152  PHE152     -0.0042
     43  CD2      -52.4140   20.8440  -13.3180 C.ar  152  PHE152     -0.0042
     44  CE1      -51.4000   19.0870  -15.2180 C.ar  152  PHE152     -0.0003
     45  CE2      -52.8290   20.9400  -14.6390 C.ar  152  PHE152     -0.0003
     46  CZ       -52.3210   20.0590  -15.5930 C.ar  152  PHE152     -0.0000
     47  N        -52.8550   22.2200   -7.4730 N.3   155  PHE155     -0.1241
     48  CA       -53.8770   21.1960   -7.3120 C.3   155  PHE155      0.1605
     49  C        -53.4120   20.0590   -6.4140 C.2   155  PHE155      0.2264
     50  O        -54.1510   19.5960   -5.5450 O.2   155  PHE155     -0.2867
     51  CB       -54.2760   20.6230   -8.6690 C.3   155  PHE155      0.0534
     52  CG       -55.0760   19.3490   -8.5820 C.ar  155  PHE155     -0.0203
     53  CD1      -56.1670   19.2500   -7.7180 C.ar  155  PHE155     -0.0042
     54  CD2      -54.7590   18.2610   -9.3850 C.ar  155  PHE155     -0.0042
     55  CE1      -56.9350   18.0830   -7.6570 C.ar  155  PHE155     -0.0003
     56  CE2      -55.5160   17.0940   -9.3340 C.ar  155  PHE155     -0.0003
     57  CZ       -56.6090   17.0050   -8.4680 C.ar  155  PHE155     -0.0000
     58  N        -54.9480   17.8760   -3.5990 N.3   159  ARG159     -0.1245
     59  CA       -55.1630   16.4690   -3.8920 C.3   159  ARG159      0.1563
     60  C        -54.7220   15.6040   -2.7220 C.2   159  ARG159      0.2260
     61  O        -55.3070   14.5480   -2.4610 O.2   159  ARG159     -0.2867
     62  CB       -54.4160   16.0690   -5.1680 C.3   159  ARG159      0.0307
     63  CG       -54.6680   14.6420   -5.6060 C.3   159  ARG159      0.0489
     64  CD       -54.1140   14.3800   -6.9870 C.3   159  ARG159      0.2205
     65  NE       -55.1760   14.0690   -7.9360 N.pl3 159  ARG159     -0.0865
     66  CZ       -54.9830   13.7870   -9.2210 C.cat 159  ARG159      0.5346
     67  NH1      -53.7590   13.7740   -9.7310 N.pl3 159  ARG159      0.1354
     68  NH2      -56.0190   13.5110   -9.9950 N.pl3 159  ARG159      0.1354
     69  N        -51.5450   19.4080  -23.6250 N.3   277  ILE277     -0.1245
     70  CA       -51.8270   20.0890  -22.3640 C.3   277  ILE277      0.1561
     71  C        -50.5840   20.1530  -21.4760 C.2   277  ILE277      0.2260
     72  O        -49.8450   19.1720  -21.3360 O.2   277  ILE277     -0.2867
     73  CB       -52.9880   19.4000  -21.5930 C.3   277  ILE277      0.0252
     74  CG1      -53.3210   20.1980  -20.3300 C.3   277  ILE277      0.0019
     75  CG2      -52.6240   17.9590  -21.2560 C.3   277  ILE277      0.0019
     76  CD1      -54.5810   19.7320  -19.6400 C.3   277  ILE277      0.0001
     77  N        -47.8110   15.9720  -18.2650 N.3   282  VAL282     -0.1245
     78  CA       -48.7860   15.3980  -17.3480 C.3   282  VAL282      0.1561
     79  C        -48.6620   13.8820  -17.4200 C.2   282  VAL282      0.2260
     80  O        -48.4000   13.3220  -18.4870 O.2   282  VAL282     -0.2867
     81  CB       -50.2240   15.8020  -17.7090 C.3   282  VAL282      0.0252
     82  CG1      -51.1630   15.4320  -16.5690 C.3   282  VAL282      0.0019
     83  CG2      -50.2890   17.2850  -17.9980 C.3   282  VAL282      0.0019
     84  N        -50.9570   11.6510  -17.2220 N.3   284  ASN284     -0.1240
     85  CA       -51.9970   10.9960  -18.0040 C.3   284  ASN284      0.1653
     86  C        -52.1100   11.5040  -19.4380 C.2   284  ASN284      0.2266
     87  O        -53.1120   11.2720  -20.1100 O.2   284  ASN284     -0.2867
     88  CB       -53.3440   11.1120  -17.2900 C.3   284  ASN284      0.1155
     89  CG       -53.7090   12.5340  -16.9700 C.2   284  ASN284      0.2627
     90  OD1      -54.1150   13.2920  -17.8450 O.2   284  ASN284     -0.2716
     91  ND2      -53.5610   12.9100  -15.7070 N.am  284  ASN284     -0.0877
     92  N        -63.2210   10.6320  -25.6160 N.3   437  ARG437     -0.1231
     93  CA       -63.0470   11.9140  -24.9350 C.3   437  ARG437      0.1694
     94  C        -61.6160   12.0370  -24.4340 C.2   437  ARG437      0.2591
     95  O        -60.8900   11.0440  -24.3810 O.2   437  ARG437     -0.2718
     96  CB       -64.0220   12.0680  -23.7680 C.3   437  ARG437      0.0321
     97  CG       -63.9330   10.9900  -22.7170 C.3   437  ARG437      0.0489
     98  CD       -64.3640   11.5450  -21.3660 C.3   437  ARG437      0.2205
     99  NE       -63.3020   12.3460  -20.7630 N.pl3 437  ARG437     -0.0865
    100  CZ       -63.3570   12.8860  -19.5510 C.cat 437  ARG437      0.5346
    101  NH1      -64.4310   12.7250  -18.7920 N.pl3 437  ARG437      0.1354
    102  NH2      -62.3210   13.5730  -19.0890 N.pl3 437  ARG437      0.1354
    103  N        -61.2130   13.2520  -24.0700 N.am  438  GLU438     -0.1979
    104  CA       -59.8490   13.4970  -23.6030 C.3   438  GLU438      0.1602
    105  C        -59.5870   12.9910  -22.1880 C.2   438  GLU438      0.2287
    106  O        -60.5070   12.8370  -21.3840 O.2   438  GLU438     -0.2864
    107  CB       -59.4990   14.9910  -23.7050 C.3   438  GLU438      0.0415
    108  CG       -60.1650   15.9030  -22.6820 C.3   438  GLU438      0.1163
    109  CD       -61.6350   16.1700  -22.9610 C.2   438  GLU438      0.3649
    110  OE1      -62.2410   16.9640  -22.2040 O.co2 438  GLU438     -0.2457
    111  OE2      -62.1850   15.6010  -23.9300 O.co2 438  GLU438     -0.2457
    112  N        -59.0480   13.5640  -18.9280 N.3   440  PHE440     -0.1227
    113  CA       -59.1250   14.4880  -17.7950 C.3   440  PHE440      0.1736
    114  C        -59.9190   13.8260  -16.6630 C.2   440  PHE440      0.2595
    115  O        -61.1360   13.6760  -16.7690 O.2   440  PHE440     -0.2718
    116  CB       -59.8140   15.7950  -18.2160 C.3   440  PHE440      0.0547
    117  CG       -59.0390   16.6040  -19.2280 C.ar  440  PHE440     -0.0202
    118  CD1      -59.6380   17.6870  -19.8680 C.ar  440  PHE440     -0.0042
    119  CD2      -57.7120   16.2940  -19.5380 C.ar  440  PHE440     -0.0042
    120  CE1      -58.9300   18.4490  -20.8030 C.ar  440  PHE440     -0.0003
    121  CE2      -56.9920   17.0490  -20.4720 C.ar  440  PHE440     -0.0003
    122  CZ       -57.6040   18.1280  -21.1050 C.ar  440  PHE440     -0.0000
    123  N        -59.2400   13.4290  -15.5870 N.am  441  GLU441     -0.1965
    124  CA       -59.9210   12.7750  -14.4720 C.3   441  GLU441      0.1733
    125  C        -60.9300   13.6830  -13.7890 C.2   441  GLU441      0.2616
    126  O        -60.7330   14.8960  -13.7070 O.2   441  GLU441     -0.2715
    127  CB       -58.9460   12.3180  -13.3850 C.3   441  GLU441      0.0429
    128  CG       -57.6070   11.8390  -13.8350 C.3   441  GLU441      0.1163
    129  CD       -56.6300   12.9740  -13.9730 C.2   441  GLU441      0.3649
    130  OE1      -56.7220   13.7030  -14.9800 O.co2 441  GLU441     -0.2457
    131  OE2      -55.7810   13.1460  -13.0690 O.co2 441  GLU441     -0.2457
    132  N        -62.0020   13.0770  -13.2900 N.am  442  ALA442     -0.1977
    133  CA       -63.0400   13.7950  -12.5590 C.3   442  ALA442      0.1597
    134  C        -62.6040   13.7230  -11.1020 C.2   442  ALA442      0.2287
    135  O        -61.9230   12.7740  -10.7040 O.2   442  ALA442     -0.2864
    136  CB       -64.3860   13.1070  -12.7310 C.3   442  ALA442      0.0319
@<TRIPOS>BOND
     1    92    93    1
     2    93    94    1
     3    93    96    1
     4    94    95    2
     5    94   103   am
     6   103   104    1
     7   111   109   ar
     8    96    97    1
     9   107   104    1
    10   107   108    1
    11    69    70    1
    12   104   105    1
    13   109   108    1
    14   109   110   ar
    15    97    98    1
    16    70    73    1
    17    70    71    1
    18   105   106    2
    19    73    75    1
    20    73    74    1
    21    71    72    2
    22    98    99    1
    23   122   120   ar
    24   122   121   ar
    25   120   118   ar
    26    99   100    2
    27   121   119   ar
    28    74    76    1
    29    87    86    2
    30   118   117   ar
    31   100   102    1
    32   100   101    1
    33   119   117   ar
    34    86    85    1
    35   117   116    1
    36   112   113    1
    37    80    79    2
    38     8     6    1
    39    77    78    1
    40     1     2    1
    41   116   113    1
    42     5     6    1
    43     5     2    1
    44    85    88    1
    45    85    84    1
    46    83    81    1
    47    90    89    2
    48   113   114    1
    49    81    78    1
    50    81    82    1
    51     7     6    1
    52     2     3    1
    53    79    78    1
    54    88    89    1
    55    89    91   am
    56   115   114    2
    57   114   123   am
    58    14    13    1
    59     3     4    2
    60    15    13    1
    61    46    44   ar
    62    46    45   ar
    63   123   124    1
    64    13    10    1
    65    44    42   ar
    66   130   129   ar
    67    45    43   ar
    68   124   125    1
    69   124   127    1
    70     9    10    1
    71    10    11    1
    72   129   128    1
    73   129   131   ar
    74    42    41   ar
    75   128   127    1
    76   125   126    2
    77   125   132   am
    78    43    41   ar
    79   132   133    1
    80    41    40    1
    81    11    16   am
    82    11    12    2
    83    16    17    1
    84   136   133    1
    85   133   134    1
    86    20    17    1
    87    20    21    1
    88    23    22   ar
    89    17    18    1
    90    36    37    1
    91    40    37    1
    92    37    38    1
    93   134   135    2
    94    32    34   ar
    95    32    30   ar
    96    22    21    1
    97    22    24   ar
    98    34    35   ar
    99    29    30    1
   100    29    26    1
   101    30    31   ar
   102    18    19    2
   103    35    33   ar
   104    31    33   ar
   105    68    66    1
   106    25    26    1
   107    67    66    1
   108    38    39    2
   109    26    27    1
   110    54    56   ar
   111    54    52   ar
   112    56    57   ar
   113    66    65    2
   114    51    52    1
   115    51    48    1
   116    52    53   ar
   117    57    55   ar
   118    27    28    2
   119    65    64    1
   120    53    55   ar
   121    47    48    1
   122    48    49    1
   123    64    63    1
   124    49    50    2
   125    63    62    1
   126    62    59    1
   127    59    58    1
   128    59    60    1
   129    60    61    2
