@<TRIPOS>MOLECULE
tmp/2opyA00.pdb
 127 126 0 0 0
SMALL
GASTEIGER

@<TRIPOS>ATOM
      1  N         -5.1570  -28.1410   -5.3810 N.3    44  LEU44      -0.1245
      2  CA        -4.3030  -27.6770   -6.4620 C.3    44  LEU44       0.1561
      3  C         -2.8710  -27.4280   -5.9830 C.2    44  LEU44       0.2260
      4  O         -1.9210  -27.4970   -6.7680 O.2    44  LEU44      -0.2867
      5  CB        -4.8770  -26.4010   -7.0810 C.3    44  LEU44       0.0270
      6  CG        -6.2410  -26.5350   -7.7670 C.3    44  LEU44       0.0019
      7  CD1       -6.6100  -25.2070   -8.4380 C.3    44  LEU44       0.0001
      8  CD2       -6.1920  -27.6590   -8.7940 C.3    44  LEU44       0.0001
      9  N         -7.0530  -23.6370   -2.6260 N.3    49  LYS49      -0.1231
     10  CA        -7.7240  -23.8610   -3.8950 C.3    49  LYS49       0.1693
     11  C         -7.9840  -25.3480   -4.1270 C.2    49  LYS49       0.2592
     12  O         -7.0610  -26.1660   -4.0990 O.2    49  LYS49      -0.2718
     13  CB        -6.8830  -23.3460   -5.0560 C.3    49  LYS49       0.0285
     14  CG        -6.7960  -21.8560   -5.1590 C.3    49  LYS49       0.0035
     15  CD        -6.1390  -21.4670   -6.4540 C.3    49  LYS49       0.0206
     16  CE        -6.1330  -19.9640   -6.6390 C.3    49  LYS49       0.1093
     17  NZ        -5.5090  -19.6140   -7.9500 N.3    49  LYS49      -0.1314
     18  N         -9.2470  -25.6900   -4.3560 N.am   50  VAL50      -0.1966
     19  CA        -9.6400  -27.0650   -4.6430 C.3    50  VAL50       0.1727
     20  C        -10.3940  -27.0810   -5.9680 C.2    50  VAL50       0.2616
     21  O        -10.8510  -26.0410   -6.4530 O.2    50  VAL50      -0.2715
     22  CB       -10.5510  -27.6250   -3.5650 C.3    50  VAL50       0.0290
     23  CG1       -9.7960  -27.6950   -2.2510 C.3    50  VAL50       0.0023
     24  CG2      -11.8020  -26.7630   -3.4510 C.3    50  VAL50       0.0023
     25  N        -10.5410  -28.2610   -6.5520 N.am   51  LYS51      -0.1977
     26  CA       -11.2290  -28.3570   -7.8280 C.3    51  LYS51       0.1596
     27  C        -11.9960  -29.6710   -7.8790 C.2    51  LYS51       0.2287
     28  O        -11.4980  -30.6960   -7.4200 O.2    51  LYS51      -0.2864
     29  CB       -10.1910  -28.2870   -8.9490 C.3    51  LYS51       0.0298
     30  CG       -10.6460  -27.5630  -10.1900 C.3    51  LYS51       0.0038
     31  CD        -9.4680  -27.1890  -11.0810 C.3    51  LYS51       0.0206
     32  CE        -9.9570  -26.5590  -12.3740 C.3    51  LYS51       0.1093
     33  NZ        -8.9000  -25.7450  -13.0200 N.3    51  LYS51      -0.1314
     34  N        -13.9990  -24.7890   -9.3620 N.3    58  GLY58      -0.1210
     35  CA       -13.0150  -24.5040   -8.3300 C.3    58  GLY58       0.1956
     36  C        -13.4800  -23.5210   -7.2680 C.2    58  GLY58       0.2612
     37  O        -14.2870  -22.6310   -7.5490 O.2    58  GLY58      -0.2717
     38  N        -12.9700  -23.6870   -6.0470 N.am   59  LEU59      -0.1965
     39  CA       -13.3100  -22.8100   -4.9290 C.3    59  LEU59       0.1728
     40  C        -12.0530  -22.4460   -4.1270 C.2    59  LEU59       0.2617
     41  O        -11.0600  -23.1760   -4.1660 O.2    59  LEU59      -0.2715
     42  CB       -14.3090  -23.4840   -3.9740 C.3    59  LEU59       0.0311
     43  CG       -15.7640  -23.8800   -4.2820 C.3    59  LEU59       0.0022
     44  CD1      -16.4060  -22.8690   -5.2040 C.3    59  LEU59       0.0001
     45  CD2      -15.8160  -25.2630   -4.8800 C.3    59  LEU59       0.0001
     46  N        -12.1050  -21.3180   -3.4090 N.am   60  THR60      -0.1937
     47  CA       -10.9990  -20.8490   -2.5550 C.3    60  THR60       0.2028
     48  C        -11.5090  -19.9950   -1.4250 C.2    60  THR60       0.2642
     49  O        -12.6910  -19.7190   -1.3440 O.2    60  THR60      -0.2714
     50  CB        -9.9980  -19.9580   -3.2650 C.3    60  THR60       0.1808
     51  OG1      -10.4390  -19.7040   -4.5990 O.3    60  THR60      -0.2208
     52  CG2       -8.6260  -20.5920   -3.2310 C.3    60  THR60       0.0379
     53  N        -10.5970  -19.5410   -0.5730 N.am   61  ASP61      -0.1957
     54  CA       -10.9670  -18.7090    0.5620 C.3    61  ASP61       0.1840
     55  C        -11.9800  -19.4490    1.4120 C.2    61  ASP61       0.2622
     56  O        -13.0420  -18.9140    1.7510 O.2    61  ASP61      -0.2715
     57  CB       -11.5770  -17.3900    0.0930 C.3    61  ASP61       0.1450
     58  CG       -10.6130  -16.5610   -0.7230 C.2    61  ASP61       0.3671
     59  OD1      -11.0570  -15.5380   -1.3000 O.co2  61  ASP61      -0.2456
     60  OD2       -9.4170  -16.9270   -0.7820 O.co2  61  ASP61      -0.2456
     61  N        -11.6480  -20.6910    1.7430 N.am   62  TRP62      -0.1960
     62  CA       -12.5220  -21.5020    2.5650 C.3    62  TRP62       0.1771
     63  C        -12.6290  -20.9250    3.9670 C.2    62  TRP62       0.2619
     64  O        -11.6630  -20.9490    4.7340 O.2    62  TRP62      -0.2715
     65  CB       -12.0050  -22.9350    2.6230 C.3    62  TRP62       0.0590
     66  CG       -12.3170  -23.6780    1.3880 C.ar   62  TRP62       0.0006
     67  CD1      -11.5200  -23.8250    0.2930 C.ar   62  TRP62       0.0946
     68  CD2      -13.5550  -24.3200    1.0770 C.ar   62  TRP62       0.0152
     69  NE1      -12.1880  -24.5190   -0.6830 N.ar   62  TRP62      -0.2442
     70  CE2      -13.4410  -24.8350   -0.2250 C.ar   62  TRP62       0.0810
     71  CE3      -14.7520  -24.5100    1.7780 C.ar   62  TRP62       0.0012
     72  CZ2      -14.4830  -25.5260   -0.8480 C.ar   62  TRP62       0.0191
     73  CZ3      -15.7830  -25.1960    1.1610 C.ar   62  TRP62       0.0001
     74  CH2      -15.6420  -25.6960   -0.1380 C.ar   62  TRP62       0.0015
     75  N        -13.8110  -20.4040    4.2870 N.am   63  LYS63      -0.1977
     76  CA       -14.0730  -19.8070    5.5870 C.3    63  LYS63       0.1596
     77  C        -14.3980  -20.8700    6.6310 C.2    63  LYS63       0.2287
     78  O        -14.8350  -21.9740    6.3000 O.2    63  LYS63      -0.2864
     79  CB       -15.2030  -18.7890    5.4600 C.3    63  LYS63       0.0298
     80  CG       -14.8240  -17.6580    4.5170 C.3    63  LYS63       0.0038
     81  CD       -15.9580  -16.6890    4.2610 C.3    63  LYS63       0.0206
     82  CE       -15.5950  -15.7430    3.1180 C.3    63  LYS63       0.1093
     83  NZ       -16.6530  -14.7190    2.8490 N.3    63  LYS63      -0.1314
     84  N        -18.1500  -23.0270    6.4980 N.3    66  GLU66      -0.1245
     85  CA       -18.5180  -23.0380    5.0880 C.3    66  GLU66       0.1567
     86  C        -18.3890  -24.5160    4.7470 C.2    66  GLU66       0.2260
     87  O        -17.3680  -25.1310    5.0570 O.2    66  GLU66      -0.2867
     88  CB       -17.5160  -22.2090    4.2900 C.3    66  GLU66       0.0388
     89  CG       -18.0920  -21.5500    3.0580 C.3    66  GLU66       0.1160
     90  CD       -17.3010  -20.3160    2.6270 C.2    66  GLU66       0.3649
     91  OE1      -16.0600  -20.3950    2.5070 O.co2  66  GLU66      -0.2457
     92  OE2      -17.9220  -19.2610    2.4000 O.co2  66  GLU66      -0.2457
     93  N        -21.1640  -25.4700   -0.8170 N.3    71  GLN71      -0.1245
     94  CA       -20.5050  -24.5990   -1.7830 C.3    71  GLN71       0.1566
     95  C        -20.4950  -25.2150   -3.1780 C.2    71  GLN71       0.2260
     96  O        -20.6980  -24.5220   -4.1870 O.2    71  GLN71      -0.2867
     97  CB       -19.0690  -24.3280   -1.3330 C.3    71  GLN71       0.0367
     98  CG       -18.9870  -23.5870   -0.0250 C.3    71  GLN71       0.0905
     99  CD       -19.7150  -22.2640   -0.0880 C.2    71  GLN71       0.2608
    100  OE1      -19.3650  -21.3880   -0.8860 O.2    71  GLN71      -0.2717
    101  NE2      -20.7400  -22.1120    0.7500 N.am   71  GLN71      -0.0878
    102  N        -22.0320  -23.0630   -6.2800 N.3    75  TRP75      -0.1227
    103  CA       -21.3190  -22.6070   -7.4660 C.3    75  TRP75       0.1737
    104  C        -21.3000  -23.5150   -8.6890 C.2    75  TRP75       0.2595
    105  O        -21.0360  -23.0550   -9.8000 O.2    75  TRP75      -0.2718
    106  CB       -19.8870  -22.2460   -7.0790 C.3    75  TRP75       0.0564
    107  CG       -19.8480  -21.1710   -6.0470 C.ar   75  TRP75       0.0003
    108  CD1      -19.7210  -21.3300   -4.6940 C.ar   75  TRP75       0.0946
    109  CD2      -20.0120  -19.7690   -6.2730 C.ar   75  TRP75       0.0152
    110  NE1      -19.8000  -20.1100   -4.0630 N.ar   75  TRP75      -0.2442
    111  CE2      -19.9770  -19.1340   -5.0070 C.ar   75  TRP75       0.0810
    112  CE3      -20.1870  -18.9820   -7.4230 C.ar   75  TRP75       0.0012
    113  CZ2      -20.1090  -17.7460   -4.8590 C.ar   75  TRP75       0.0191
    114  CZ3      -20.3200  -17.5960   -7.2750 C.ar   75  TRP75       0.0001
    115  CH2      -20.2790  -16.9970   -5.9990 C.ar   75  TRP75       0.0015
    116  N        -21.5720  -24.8000   -8.5050 N.am   76  TYR76      -0.1976
    117  CA       -21.5720  -25.7060   -9.6370 C.3    76  TYR76       0.1639
    118  C        -22.8160  -26.5700   -9.6140 C.2    76  TYR76       0.2290
    119  O        -22.7470  -27.7980   -9.5930 O.2    76  TYR76      -0.2864
    120  CB       -20.2980  -26.5340   -9.6090 C.3    76  TYR76       0.0560
    121  CG       -19.0990  -25.6300   -9.6010 C.ar   76  TYR76      -0.0198
    122  CD1      -18.4110  -25.3600   -8.4230 C.ar   76  TYR76      -0.0009
    123  CD2      -18.7210  -24.9500  -10.7550 C.ar   76  TYR76      -0.0009
    124  CE1      -17.3810  -24.4300   -8.3970 C.ar   76  TYR76       0.0417
    125  CE2      -17.6960  -24.0150  -10.7450 C.ar   76  TYR76       0.0417
    126  CZ       -17.0280  -23.7540   -9.5670 C.ar   76  TYR76       0.1957
    127  OH       -16.0250  -22.8040   -9.5530 O.3    76  TYR76      -0.2866
@<TRIPOS>BOND
     1    33    32    1
     2    32    31    1
     3    31    30    1
     4   123   125   ar
     5   123   121   ar
     6   125   126   ar
     7    30    29    1
     8   105   104    2
     9   117   118    1
    10   117   120    1
    11   117   116    1
    12   118   119    2
    13   120   121    1
    14   121   122   ar
    15   126   127    1
    16   126   124   ar
    17    34    35    1
    18    29    26    1
    19     8     6    1
    20   104   116   am
    21   104   103    1
    22     7     6    1
    23   122   124   ar
    24    35    36    1
    25    17    16    1
    26    27    26    1
    27    27    28    2
    28    26    25    1
    29     6     5    1
    30    37    36    2
    31   103   106    1
    32   103   102    1
    33   112   114   ar
    34   112   109   ar
    35   114   115   ar
    36    36    38   am
    37     5     2    1
    38   106   107    1
    39     4     3    2
    40    16    15    1
    41    25    20   am
    42     2     3    1
    43     2     1    1
    44    15    14    1
    45    21    20    2
    46   109   107   ar
    47   109   111   ar
    48    38    39    1
    49   107   108   ar
    50   115   113   ar
    51    20    19    1
    52    44    43    1
    53    14    13    1
    54    13    10    1
    55   111   113   ar
    56   111   110   ar
    57    39    40    1
    58    39    42    1
    59    45    43    1
    60   108   110   ar
    61    19    18    1
    62    19    22    1
    63    51    50    1
    64    18    11   am
    65    43    42    1
    66    96    95    2
    67    41    40    2
    68    40    46   am
    69    11    12    2
    70    11    10    1
    71    10     9    1
    72    22    24    1
    73    22    23    1
    74    46    47    1
    75    50    52    1
    76    50    47    1
    77    95    94    1
    78    47    48    1
    79    94    97    1
    80    94    93    1
    81    48    49    2
    82    48    53   am
    83    97    98    1
    84    59    58   ar
    85   100    99    2
    86    72    70   ar
    87    72    74   ar
    88    60    58   ar
    89    58    57    1
    90    69    70   ar
    91    69    67   ar
    92    53    54    1
    93    70    68   ar
    94    74    73   ar
    95    99    98    1
    96    99   101   am
    97    57    54    1
    98    67    66   ar
    99    54    55    1
   100    68    66   ar
   101    68    71   ar
   102    73    71   ar
   103    66    65    1
   104    55    61   am
   105    55    56    2
   106    61    62    1
   107    92    90   ar
   108    91    90   ar
   109    62    65    1
   110    62    63    1
   111    90    89    1
   112    83    82    1
   113    89    88    1
   114    82    81    1
   115    63    75   am
   116    63    64    2
   117    81    80    1
   118    75    76    1
   119    88    85    1
   120    80    79    1
   121    86    87    2
   122    86    85    1
   123    85    84    1
   124    79    76    1
   125    76    77    1
   126    78    77    2
