@<TRIPOS>MOLECULE
tmp/2opzB00.pdb
 136 135 0 0 0
SMALL
GASTEIGER

@<TRIPOS>ATOM
      1  N        113.4240   69.9740   24.5130 N.3    44  LEU44      -0.1245
      2  CA       113.4590   70.6000   23.1830 C.3    44  LEU44       0.1561
      3  C        114.0330   69.6660   22.1030 C.2    44  LEU44       0.2260
      4  O        114.3890   70.1060   20.9960 O.2    44  LEU44      -0.2867
      5  CB       114.3180   71.8640   23.2220 C.3    44  LEU44       0.0270
      6  CG       113.9890   72.9360   24.2490 C.3    44  LEU44       0.0019
      7  CD1      114.9280   74.1100   23.9810 C.3    44  LEU44       0.0001
      8  CD2      112.5090   73.3440   24.1590 C.3    44  LEU44       0.0001
      9  N        118.6700   69.7520   26.6030 N.3    49  LYS49      -0.1231
     10  CA       118.0580   71.0790   26.7190 C.3    49  LYS49       0.1693
     11  C        116.5920   71.0090   27.1140 C.2    49  LYS49       0.2592
     12  O        115.7950   70.3400   26.4650 O.2    49  LYS49      -0.2718
     13  CB       118.1320   71.8490   25.4040 C.3    49  LYS49       0.0285
     14  CG       119.5210   72.2460   25.0040 C.3    49  LYS49       0.0035
     15  CD       119.4890   73.3220   23.9240 C.3    49  LYS49       0.0206
     16  CE       120.9040   73.7670   23.5180 C.3    49  LYS49       0.1093
     17  NZ       120.9410   75.0180   22.6810 N.3    49  LYS49      -0.1314
     18  N        116.2410   71.7160   28.1780 N.am   50  VAL50      -0.1966
     19  CA       114.8690   71.7670   28.6560 C.3    50  VAL50       0.1727
     20  C        114.5840   73.2370   28.8420 C.2    50  VAL50       0.2616
     21  O        115.5040   74.0510   28.8390 O.2    50  VAL50      -0.2715
     22  CB       114.7140   71.0520   29.9910 C.3    50  VAL50       0.0290
     23  CG1      115.0720   69.5750   29.8190 C.3    50  VAL50       0.0023
     24  CG2      115.5870   71.7390   31.0520 C.3    50  VAL50       0.0023
     25  N        113.3190   73.5680   29.0320 N.am   51  LYS51      -0.1977
     26  CA       112.9070   74.9530   29.1690 C.3    51  LYS51       0.1596
     27  C        111.6840   74.9720   30.0880 C.2    51  LYS51       0.2287
     28  O        110.9090   74.0140   30.1240 O.2    51  LYS51      -0.2864
     29  CB       112.5430   75.4570   27.7730 C.3    51  LYS51       0.0298
     30  CG       112.8820   76.8940   27.3890 C.3    51  LYS51       0.0038
     31  CD       112.5720   77.0910   25.8790 C.3    51  LYS51       0.0206
     32  CE       112.7240   78.5270   25.3720 C.3    51  LYS51       0.1093
     33  NZ       114.1300   79.0140   25.4580 N.3    51  LYS51      -0.1314
     34  N        115.8320   78.4070   30.0410 N.3    58  GLY58      -0.1210
     35  CA       116.3900   77.1480   29.5840 C.3    58  GLY58       0.1956
     36  C        117.6370   76.7080   30.3210 C.2    58  GLY58       0.2612
     37  O        118.4690   77.5290   30.6850 O.2    58  GLY58      -0.2717
     38  N        117.7570   75.3960   30.5250 N.am   59  LEU59      -0.1965
     39  CA       118.9040   74.7910   31.2140 C.3    59  LEU59       0.1728
     40  C        119.5260   73.6530   30.3900 C.2    59  LEU59       0.2617
     41  O        118.8010   72.8360   29.8300 O.2    59  LEU59      -0.2715
     42  CB       118.4540   74.2430   32.5760 C.3    59  LEU59       0.0311
     43  CG       118.6490   75.0800   33.8440 C.3    59  LEU59       0.0022
     44  CD1      118.4950   76.5660   33.5740 C.3    59  LEU59       0.0001
     45  CD2      117.6450   74.5950   34.8680 C.3    59  LEU59       0.0001
     46  N        120.8620   73.6140   30.3250 N.am   60  THR60      -0.1937
     47  CA       121.6020   72.5720   29.5940 C.3    60  THR60       0.2028
     48  C        122.8380   72.1460   30.3490 C.2    60  THR60       0.2642
     49  O        123.3300   72.8600   31.2160 O.2    60  THR60      -0.2714
     50  CB       122.0840   73.0460   28.2090 C.3    60  THR60       0.1808
     51  OG1      120.9600   73.5050   27.4680 O.3    60  THR60      -0.2208
     52  CG2      122.7400   71.9000   27.4170 C.3    60  THR60       0.0379
     53  N        123.3410   70.9740   29.9900 N.am   61  ASP61      -0.1957
     54  CA       124.5390   70.4240   30.6000 C.3    61  ASP61       0.1840
     55  C        124.3190   69.9640   32.0270 C.2    61  ASP61       0.2622
     56  O        125.1990   70.0920   32.8760 O.2    61  ASP61      -0.2715
     57  CB       125.6800   71.4440   30.5520 C.3    61  ASP61       0.1450
     58  CG       126.1640   71.7150   29.1320 C.2    61  ASP61       0.3671
     59  OD1      127.0120   72.6160   28.9540 O.co2  61  ASP61      -0.2456
     60  OD2      125.7030   71.0230   28.1950 O.co2  61  ASP61      -0.2456
     61  N        123.1380   69.4190   32.2870 N.am   62  TRP62      -0.1960
     62  CA       122.8240   68.9100   33.6050 C.3    62  TRP62       0.1771
     63  C        123.8620   67.9090   34.0570 C.2    62  TRP62       0.2619
     64  O        124.4070   67.1490   33.2540 O.2    62  TRP62      -0.2715
     65  CB       121.4660   68.2320   33.6050 C.3    62  TRP62       0.0590
     66  CG       120.3820   69.1740   33.3080 C.ar   62  TRP62       0.0006
     67  CD1      120.0350   69.6560   32.0850 C.ar   62  TRP62       0.0946
     68  CD2      119.4940   69.7880   34.2530 C.ar   62  TRP62       0.0152
     69  NE1      118.9830   70.5340   32.2040 N.ar   62  TRP62      -0.2442
     70  CE2      118.6290   70.6320   33.5260 C.ar   62  TRP62       0.0810
     71  CE3      119.3450   69.7080   35.6470 C.ar   62  TRP62       0.0012
     72  CZ2      117.6260   71.3880   34.1370 C.ar   62  TRP62       0.0191
     73  CZ3      118.3430   70.4650   36.2620 C.ar   62  TRP62       0.0001
     74  CH2      117.4970   71.2940   35.5030 C.ar   62  TRP62       0.0015
     75  N        124.1280   67.9220   35.3570 N.am   63  LYS63      -0.1977
     76  CA       125.0650   67.0030   35.9540 C.3    63  LYS63       0.1596
     77  C        124.1630   65.9580   36.5600 C.2    63  LYS63       0.2287
     78  O        122.9860   66.2090   36.8070 O.2    63  LYS63      -0.2864
     79  CB       125.9060   67.7150   37.0060 C.3    63  LYS63       0.0298
     80  CG       126.7610   68.8060   36.3890 C.3    63  LYS63       0.0038
     81  CD       127.7670   69.3850   37.3740 C.3    63  LYS63       0.0206
     82  CE       128.8690   70.1800   36.6500 C.3    63  LYS63       0.1093
     83  NZ       129.9670   70.6910   37.5460 N.3    63  LYS63      -0.1314
     84  N        122.3040   66.9540   39.9660 N.3    66  GLU66      -0.1245
     85  CA       121.4530   68.1270   40.1080 C.3    66  GLU66       0.1567
     86  C        119.9690   67.8970   40.2300 C.2    66  GLU66       0.2260
     87  O        119.4100   66.9700   39.6540 O.2    66  GLU66      -0.2867
     88  CB       121.7310   69.1030   38.9690 C.3    66  GLU66       0.0388
     89  CG       123.2150   69.3790   38.8140 C.3    66  GLU66       0.1160
     90  CD       123.5430   70.4090   37.7560 C.2    66  GLU66       0.3649
     91  OE1      122.8740   70.4210   36.7060 O.co2  66  GLU66      -0.2457
     92  OE2      124.4880   71.1980   37.9670 O.co2  66  GLU66      -0.2457
     93  N        118.1760   74.0290   40.3890 N.3    71  GLN71      -0.1245
     94  CA       118.6890   74.7300   39.2330 C.3    71  GLN71       0.1566
     95  C        117.7050   75.7720   38.7390 C.2    71  GLN71       0.2260
     96  O        118.0860   76.8710   38.3120 O.2    71  GLN71      -0.2867
     97  CB       118.9820   73.7350   38.1260 C.3    71  GLN71       0.0367
     98  CG       120.1050   72.7960   38.4770 C.3    71  GLN71       0.0905
     99  CD       121.3250   73.5370   38.9800 C.2    71  GLN71       0.2608
    100  OE1      121.7870   74.4970   38.3560 O.2    71  GLN71      -0.2717
    101  NE2      121.8600   73.0910   40.1140 N.am   71  GLN71      -0.0878
    102  N        117.8890   78.6130   41.0480 N.3    74  LYS74      -0.1231
    103  CA       119.2130   79.2040   41.0310 C.3    74  LYS74       0.1693
    104  C        119.4360   80.1590   39.8930 C.2    74  LYS74       0.2592
    105  O        120.2050   81.1040   40.0160 O.2    74  LYS74      -0.2718
    106  CB       120.2900   78.1290   40.9350 C.3    74  LYS74       0.0285
    107  CG       121.6350   78.7030   40.4740 C.3    74  LYS74       0.0035
    108  CD       122.7670   77.6860   40.4330 C.3    74  LYS74       0.0206
    109  CE       124.1110   78.3920   40.2020 C.3    74  LYS74       0.1093
    110  NZ       125.3000   77.4830   40.2940 N.3    74  LYS74      -0.1314
    111  N        118.7850   79.9040   38.7740 N.am   75  TRP75      -0.1962
    112  CA       119.0140   80.7460   37.6230 C.3    75  TRP75       0.1771
    113  C        117.8390   81.5900   37.2980 C.2    75  TRP75       0.2619
    114  O        117.9880   82.6820   36.7710 O.2    75  TRP75      -0.2715
    115  CB       119.3300   79.8980   36.4050 C.3    75  TRP75       0.0590
    116  CG       120.5410   79.0510   36.5380 C.ar   75  TRP75       0.0006
    117  CD1      120.5970   77.7040   36.8240 C.ar   75  TRP75       0.0946
    118  CD2      121.8730   79.4800   36.3470 C.ar   75  TRP75       0.0152
    119  NE1      121.9030   77.2790   36.8000 N.ar   75  TRP75      -0.2442
    120  CE2      122.7050   78.3530   36.5060 C.ar   75  TRP75       0.0810
    121  CE3      122.4470   80.7120   36.0420 C.ar   75  TRP75       0.0012
    122  CZ2      124.0730   78.4250   36.3870 C.ar   75  TRP75       0.0191
    123  CZ3      123.8050   80.7930   35.9220 C.ar   75  TRP75       0.0001
    124  CH2      124.6140   79.6520   36.0850 C.ar   75  TRP75       0.0015
    125  N        116.6620   81.0630   37.5830 N.am   76  TYR76      -0.1974
    126  CA       115.4650   81.8010   37.2770 C.3    76  TYR76       0.1639
    127  C        114.5850   81.9060   38.4930 C.2    76  TYR76       0.2290
    128  O        113.5150   81.2930   38.5540 O.2    76  TYR76      -0.2864
    129  CB       114.7140   81.1280   36.1270 C.3    76  TYR76       0.0560
    130  CG       115.5850   80.8500   34.9080 C.ar   76  TYR76      -0.0198
    131  CD1      116.0890   79.5750   34.6640 C.ar   76  TYR76      -0.0009
    132  CD2      115.9290   81.8700   34.0160 C.ar   76  TYR76      -0.0009
    133  CE1      116.9220   79.3170   33.5560 C.ar   76  TYR76       0.0417
    134  CE2      116.7670   81.6250   32.9000 C.ar   76  TYR76       0.0417
    135  CZ       117.2610   80.3430   32.6740 C.ar   76  TYR76       0.1957
    136  OH       118.0880   80.0910   31.5870 O.3    76  TYR76      -0.2866
@<TRIPOS>BOND
     1     4     3    2
     2     3     2    1
     3    17    16    1
     4     2     5    1
     5     2     1    1
     6     5     6    1
     7    16    15    1
     8    15    14    1
     9     7     6    1
    10     8     6    1
    11    14    13    1
    12    32    33    1
    13    32    31    1
    14    13    10    1
    15    31    30    1
    16    12    11    2
    17     9    10    1
    18    10    11    1
    19    11    18   am
    20    30    29    1
    21    52    50    1
    22    51    50    1
    23    29    26    1
    24    18    19    1
    25    60    58   ar
    26    50    47    1
    27    19    20    1
    28    19    22    1
    29    21    20    2
    30    20    25   am
    31    59    58   ar
    32    25    26    1
    33    58    57    1
    34    26    27    1
    35    35    34    1
    36    35    36    1
    37    47    46    1
    38    47    48    1
    39    23    22    1
    40    41    40    2
    41    53    48   am
    42    53    54    1
    43    22    24    1
    44    27    28    2
    45    36    38   am
    46    36    37    2
    47    46    40   am
    48    48    49    2
    49    40    39    1
    50    38    39    1
    51    57    54    1
    52    54    55    1
    53    39    42    1
    54   136   135    1
    55    55    61   am
    56    55    56    2
    57    67    69   ar
    58    67    66   ar
    59    69    70   ar
    60    61    62    1
    61    42    43    1
    62   135   134   ar
    63   135   133   ar
    64   134   132   ar
    65    64    63    2
    66    66    65    1
    67    66    68   ar
    68    70    72   ar
    69    70    68   ar
    70   133   131   ar
    71    44    43    1
    72    62    65    1
    73    62    63    1
    74    43    45    1
    75   132   130   ar
    76    63    75   am
    77    72    74   ar
    78    68    71   ar
    79   131   130   ar
    80   130   129    1
    81    75    76    1
    82    74    73   ar
    83    71    73   ar
    84   123   121   ar
    85   123   124   ar
    86    76    77    1
    87    76    79    1
    88   121   118   ar
    89   124   122   ar
    90   129   126    1
    91   118   120   ar
    92   118   116   ar
    93   122   120   ar
    94    80    79    1
    95    80    81    1
    96   115   116    1
    97   115   112    1
    98   120   119   ar
    99   116   117   ar
   100    77    78    2
   101    82    81    1
   102    82    83    1
   103    91    90   ar
   104   114   113    2
   105   119   117   ar
   106   126   125    1
   107   126   127    1
   108   113   125   am
   109   113   112    1
   110   112   111    1
   111    90    92   ar
   112    90    89    1
   113    97    98    1
   114    97    94    1
   115    96    95    2
   116   100    99    2
   117    98    99    1
   118   127   128    2
   119    95    94    1
   120   111   104   am
   121    89    88    1
   122    88    85    1
   123    99   101   am
   124    94    93    1
   125    87    86    2
   126   104   105    2
   127   104   103    1
   128    84    85    1
   129    85    86    1
   130   109   110    1
   131   109   108    1
   132   108   107    1
   133   107   106    1
   134   106   103    1
   135   103   102    1
