@<TRIPOS>MOLECULE
tmp/2oq2C00.pdb
 169 156 0 0 0
SMALL
GASTEIGER

@<TRIPOS>ATOM
      1  N         -2.6940   -2.8210    3.7940 N.3    47  THR47      -0.1203
      2  CA        -2.9170   -3.1020    2.3890 C.3    47  THR47       0.1994
      3  C         -3.6800   -1.9020    1.7920 C.2    47  THR47       0.2619
      4  O         -4.5820   -1.3530    2.4470 O.2    47  THR47      -0.2717
      5  CB        -3.6880   -4.4530    2.2400 C.3    47  THR47       0.1784
      6  OG1       -3.5640   -4.9310    0.8960 O.3    47  THR47      -0.2211
      7  CG2       -5.1600   -4.2800    2.5950 C.3    47  THR47       0.0376
      8  N         -3.2900   -1.4580    0.5940 N.am   48  THR48      -0.1938
      9  CA        -3.9370   -0.3100   -0.0500 C.3    48  THR48       0.2028
     10  C         -3.8980   -0.3660   -1.5780 C.2    48  THR48       0.2642
     11  O         -2.9470   -0.8820   -2.1680 O.2    48  THR48      -0.2714
     12  CB        -3.2980    1.0420    0.4230 C.3    48  THR48       0.1808
     13  OG1       -4.2070    2.1220    0.1860 O.3    48  THR48      -0.2208
     14  CG2       -1.9940    1.3270   -0.2930 C.3    48  THR48       0.0379
     15  N         -4.9370    0.1760   -2.2080 N.am   49  ALA49      -0.1977
     16  CA        -4.9060    0.4960   -3.6390 C.3    49  ALA49       0.1597
     17  C         -4.7530    2.0040   -3.8230 C.2    49  ALA49       0.2287
     18  O         -4.9830    2.5420   -4.9270 O.2    49  ALA49      -0.2864
     19  CB        -6.1720    0.0220   -4.3210 C.3    49  ALA49       0.0319
     20  N         -6.6900    4.2110   -2.5110 N.3    51  GLY51      -0.1225
     21  CA        -7.9960    4.8440   -2.4280 C.3    51  GLY51       0.1811
     22  C         -7.9430    5.8610   -1.3030 C.2    51  GLY51       0.2280
     23  O         -7.0800    5.7800   -0.4120 O.2    51  GLY51      -0.2866
     24  N         -9.5960    6.4530    1.4200 N.3    53  THR53      -0.1203
     25  CA        -9.7170    5.9830    2.8000 C.3    53  THR53       0.1994
     26  C         -8.3760    5.4720    3.3150 C.2    53  THR53       0.2618
     27  O         -7.9840    5.7920    4.4400 O.2    53  THR53      -0.2717
     28  CB       -10.7530    4.8530    2.9270 C.3    53  THR53       0.1784
     29  OG1      -11.9540    5.2190    2.2340 O.3    53  THR53      -0.2211
     30  CG2      -11.0750    4.5890    4.3970 C.3    53  THR53       0.0376
     31  N         -7.6820    4.6920    2.4840 N.am   54  GLY54      -0.1956
     32  CA        -6.3840    4.1180    2.8420 C.3    54  GLY54       0.1869
     33  C         -5.2840    5.1520    2.9900 C.2    54  GLY54       0.2309
     34  O         -4.3830    4.9890    3.8180 O.2    54  GLY54      -0.2863
     35  N          1.5090   -2.8350    1.6790 N.3    74  LEU74      -0.1245
     36  CA         1.4040   -3.7670    0.5720 C.3    74  LEU74       0.1561
     37  C          0.4050   -3.2610   -0.4670 C.2    74  LEU74       0.2260
     38  O         -0.7530   -2.9580   -0.1380 O.2    74  LEU74      -0.2867
     39  CB         0.9920   -5.1580    1.0800 C.3    74  LEU74       0.0270
     40  CG         0.6320   -6.2380    0.0510 C.3    74  LEU74       0.0019
     41  CD1        1.8190   -6.5950   -0.8400 C.3    74  LEU74       0.0001
     42  CD2        0.0660   -7.4880    0.7490 C.3    74  LEU74       0.0001
     43  N         -1.1210   -4.3950   -4.2830 N.3    76  ILE76      -0.1245
     44  CA        -1.1940   -5.3680   -5.3700 C.3    76  ILE76       0.1561
     45  C         -1.2740   -4.6170   -6.6930 C.2    76  ILE76       0.2260
     46  O         -2.2490   -3.9060   -6.9750 O.2    76  ILE76      -0.2867
     47  CB        -2.3680   -6.3640   -5.2080 C.3    76  ILE76       0.0252
     48  CG1       -2.3240   -7.0520   -3.8250 C.3    76  ILE76       0.0019
     49  CG2       -2.4060   -7.3810   -6.3890 C.3    76  ILE76       0.0019
     50  CD1       -1.0210   -7.7600   -3.4820 C.3    76  ILE76       0.0001
     51  N         -2.0640   -5.1140  -10.0700 N.3    78  THR78      -0.1218
     52  CA        -2.7600   -6.0280  -10.9990 C.3    78  THR78       0.1862
     53  C         -2.2510   -5.8920  -12.4390 C.2    78  THR78       0.2287
     54  O         -2.6300   -6.6830  -13.3050 O.2    78  THR78      -0.2866
     55  CB        -4.2620   -5.6940  -11.0580 C.3    78  THR78       0.1770
     56  OG1       -4.4050   -4.3950  -11.6500 O.3    78  THR78      -0.2211
     57  CG2       -4.8940   -5.6860   -9.6490 C.3    78  THR78       0.0375
     58  N         -3.8840   -1.0710  -13.4890 N.3    81  HIS81      -0.1241
     59  CA        -4.1420    0.2040  -12.8300 C.3    81  HIS81       0.1621
     60  C         -4.0930    1.3730  -13.8210 C.2    81  HIS81       0.2264
     61  O         -3.4630    1.2880  -14.8640 O.2    81  HIS81      -0.2867
     62  CB        -3.1140    0.4540  -11.7200 C.3    81  HIS81       0.0745
     63  CG        -3.3040   -0.4130  -10.5160 C.ar   81  HIS81       0.0817
     64  ND1       -4.3490   -0.2400   -9.6270 N.ar   81  HIS81      -0.2268
     65  CD2       -2.5920   -1.4720  -10.0610 C.ar   81  HIS81       0.1154
     66  CE1       -4.2690   -1.1580   -8.6760 C.ar   81  HIS81       0.1986
     67  NE2       -3.2120   -1.9150   -8.9170 N.ar   81  HIS81      -0.2212
     68  N         -7.2220   -2.3380    6.2250 N.3   157  THR157     -0.1203
     69  CA        -7.8470   -2.1710    4.9190 C.3   157  THR157      0.1994
     70  C         -8.6510   -0.8660    4.9060 C.2   157  THR157      0.2618
     71  O         -8.9750   -0.3020    5.9650 O.2   157  THR157     -0.2717
     72  CB        -8.8100   -3.3390    4.5510 C.3   157  THR157      0.1784
     73  OG1      -10.1450   -2.9670    4.8950 O.3   157  THR157     -0.2211
     74  CG2       -8.4390   -4.6430    5.2790 C.3   157  THR157      0.0376
     75  N         -8.9810   -0.3960    3.7060 N.am  158  GLY158     -0.1942
     76  CA        -9.6510    0.8890    3.5640 C.3   158  GLY158      0.2014
     77  C        -11.1330    0.7960    3.2840 C.2   158  GLY158      0.2638
     78  O        -11.6710    1.6400    2.5890 O.2   158  GLY158     -0.2714
     79  N        -11.7910   -0.2240    3.8280 N.am  159  ARG159     -0.1977
     80  CA       -13.2350   -0.3940    3.6780 C.3   159  ARG159      0.1597
     81  C        -14.0280    0.3520    4.7650 C.2   159  ARG159      0.2287
     82  O        -13.5850    0.4540    5.9160 O.2   159  ARG159     -0.2864
     83  CB       -13.6010   -1.8670    3.6980 C.3   159  ARG159      0.0334
     84  CG       -13.0960   -2.6490    2.4950 C.3   159  ARG159      0.0492
     85  CD       -12.4060   -3.8800    2.9870 C.3   159  ARG159      0.2205
     86  NE       -13.3150   -4.9980    3.1100 N.pl3 159  ARG159     -0.0865
     87  CZ       -13.2800   -5.9020    4.0840 C.cat 159  ARG159      0.5346
     88  NH1      -12.4060   -5.8100    5.0850 N.pl3 159  ARG159      0.1354
     89  NH2      -14.1610   -6.8910    4.0600 N.pl3 159  ARG159      0.1354
     90  N        -19.6750    2.7670    2.2100 N.3   163  GLN163     -0.1245
     91  CA       -19.4230    2.3700    0.8240 C.3   163  GLN163      0.1566
     92  C        -20.5400    1.4770    0.2770 C.2   163  GLN163      0.2260
     93  O        -20.5800    1.1920   -0.9200 O.2   163  GLN163     -0.2867
     94  CB       -18.0620    1.6920    0.6910 C.3   163  GLN163      0.0367
     95  CG       -16.9100    2.6620    0.8700 C.3   163  GLN163      0.0905
     96  CD       -15.5600    1.9890    0.8080 C.2   163  GLN163      0.2608
     97  OE1      -15.3850    0.8790    1.3010 O.2   163  GLN163     -0.2717
     98  NE2      -14.5860    2.6700    0.2100 N.am  163  GLN163     -0.0878
     99  N        -20.4930   -4.0150    2.1290 N.3   167  ARG167     -0.1245
    100  CA       -19.7190   -3.3380    3.1760 C.3   167  ARG167      0.1563
    101  C        -20.5800   -2.7140    4.2790 C.2   167  ARG167      0.2260
    102  O        -20.0590   -2.3310    5.3280 O.2   167  ARG167     -0.2867
    103  CB       -18.7300   -2.3270    2.5740 C.3   167  ARG167      0.0307
    104  CG       -17.8270   -2.9670    1.5280 C.3   167  ARG167      0.0489
    105  CD       -16.6490   -2.1170    1.0960 C.3   167  ARG167      0.2205
    106  NE       -15.8340   -2.8650    0.1320 N.pl3 167  ARG167     -0.0865
    107  CZ       -14.8430   -2.3530   -0.5990 C.cat 167  ARG167      0.5346
    108  NH1      -14.5100   -1.0740   -0.4890 N.pl3 167  ARG167      0.1354
    109  NH2      -14.1800   -3.1350   -1.4490 N.pl3 167  ARG167      0.1354
    110  N        -14.0970    6.0130   -6.5660 N.3   216  SER216     -0.1202
    111  CA       -13.5430    4.6860   -6.2970 C.3   216  SER216      0.2020
    112  C        -12.7490    4.2390   -7.5110 C.2   216  SER216      0.2618
    113  O        -13.2410    4.2790   -8.6400 O.2   216  SER216     -0.2717
    114  CB       -14.6560    3.6770   -5.9920 C.3   216  SER216      0.2103
    115  OG       -14.1220    2.4130   -5.6320 O.3   216  SER216     -0.2182
    116  N        -11.5190    3.7980   -7.2850 N.am  217  ILE217     -0.1979
    117  CA       -10.6100    3.5520   -8.4000 C.3   217  ILE217      0.1595
    118  C        -10.0550    2.1480   -8.3470 C.2   217  ILE217      0.2287
    119  O         -9.4200    1.7640   -7.3710 O.2   217  ILE217     -0.2864
    120  CB        -9.4550    4.6060   -8.4680 C.3   217  ILE217      0.0276
    121  CG1      -10.0310    6.0000   -8.7700 C.3   217  ILE217      0.0022
    122  CG2       -8.4330    4.2000   -9.5490 C.3   217  ILE217      0.0022
    123  CD1       -9.2440    7.1900   -8.2020 C.3   217  ILE217      0.0001
    124  N        -19.1680    3.8020   -4.9030 N.3   233  ARG233     -0.1245
    125  CA       -18.5400    2.7240   -5.6760 C.3   233  ARG233      0.1563
    126  C        -19.3440    2.2670   -6.9050 C.2   233  ARG233      0.2260
    127  O        -19.0500    1.2150   -7.4810 O.2   233  ARG233     -0.2867
    128  CB       -18.2440    1.5350   -4.7710 C.3   233  ARG233      0.0307
    129  CG       -17.2720    1.8280   -3.6450 C.3   233  ARG233      0.0489
    130  CD       -16.8780    0.5400   -2.9570 C.3   233  ARG233      0.2205
    131  NE       -18.0440   -0.1120   -2.3540 N.pl3 233  ARG233     -0.0865
    132  CZ       -18.2460   -1.4270   -2.3290 C.cat 233  ARG233      0.5346
    133  NH1      -17.3590   -2.2490   -2.8920 N.pl3 233  ARG233      0.1354
    134  NH2      -19.3400   -1.9190   -1.7530 N.pl3 233  ARG233      0.1354
    135  N        -17.6440    1.0130  -10.1450 N.3   236  ARG236     -0.1245
    136  CA       -16.8870   -0.2390  -10.0940 C.3   236  ARG236      0.1563
    137  C        -17.6530   -1.3960  -10.7570 C.2   236  ARG236      0.2260
    138  O        -17.0710   -2.1810  -11.5070 O.2   236  ARG236     -0.2867
    139  CB       -16.4960   -0.5890   -8.6510 C.3   236  ARG236      0.0307
    140  CG       -15.6180    0.4560   -7.9410 C.3   236  ARG236      0.0489
    141  CD       -14.2350    0.6270   -8.5890 C.3   236  ARG236      0.2205
    142  NE       -13.3670   -0.5490   -8.4180 N.pl3 236  ARG236     -0.0865
    143  CZ       -12.5380   -0.7320   -7.3910 C.cat 236  ARG236      0.5346
    144  NH1      -12.4340    0.1840   -6.4320 N.pl3 236  ARG236      0.1354
    145  NH2      -11.7960   -1.8280   -7.3350 N.pl3 236  ARG236      0.1354
    146  N        -14.5320   -8.1370   -5.2930 N.3   245  CYS245     -0.1235
    147  CA       -13.5330   -8.8810   -6.0640 C.3   245  CYS245      0.1677
    148  C        -12.6040   -9.7330   -5.1800 C.2   245  CYS245      0.2270
    149  O        -12.7590   -9.7830   -3.9520 O.2   245  CYS245     -0.2867
    150  CB       -12.7270   -7.9440   -6.9820 C.3   245  CYS245      0.0956
    151  SG       -11.5750   -6.7980   -6.1520 S.3   245  CYS245     -0.0801
    152  N         -9.6360   -9.5920   -3.8900 N.3   247  ILE247     -0.1231
    153  CA        -8.8960   -9.0240   -2.7490 C.3   247  ILE247      0.1692
    154  C         -9.5900   -9.2850   -1.4040 C.2   247  ILE247      0.2592
    155  O         -8.9280   -9.5880   -0.4070 O.2   247  ILE247     -0.2718
    156  CB        -8.6360   -7.4950   -2.9360 C.3   247  ILE247      0.0266
    157  CG1       -7.8620   -7.2300   -4.2410 C.3   247  ILE247      0.0019
    158  CG2       -7.9180   -6.8840   -1.7140 C.3   247  ILE247      0.0020
    159  CD1       -6.4760   -7.8780   -4.3110 C.3   247  ILE247      0.0001
    160  N        -10.9170   -9.1800   -1.3920 N.am  248  HIS248     -0.1976
    161  CA       -11.7000   -9.3150   -0.1620 C.3   248  HIS248      0.1656
    162  C        -12.3800  -10.6690   -0.0660 C.2   248  HIS248      0.2291
    163  O        -12.7440  -11.1070    1.0280 O.2   248  HIS248     -0.2864
    164  CB       -12.7600   -8.2140   -0.0790 C.3   248  HIS248      0.0771
    165  CG       -12.3700   -6.9550   -0.7780 C.ar  248  HIS248      0.0820
    166  ND1      -11.6500   -5.9570   -0.1610 N.ar  248  HIS248     -0.2267
    167  CD2      -12.5700   -6.5460   -2.0560 C.ar  248  HIS248      0.1154
    168  CE1      -11.4360   -4.9800   -1.0220 C.ar  248  HIS248      0.1986
    169  NE2      -11.9790   -5.3130   -2.1800 N.ar  248  HIS248     -0.2212
@<TRIPOS>BOND
     1    61    60    2
     2    60    59    1
     3    58    59    1
     4    54    53    2
     5    59    62    1
     6    53    52    1
     7    62    63    1
     8    56    55    1
     9   138   137    2
    10    55    52    1
    11    55    57    1
    12    52    51    1
    13   137   136    1
    14    63    65   ar
    15    63    64   ar
    16   135   136    1
    17   136   139    1
    18    65    67   ar
    19    64    66   ar
    20   122   120    1
    21    67    66   ar
    22   121   120    1
    23   121   123    1
    24   139   140    1
    25   113   112    2
    26   141   142    1
    27   141   140    1
    28   120   117    1
    29   142   143    2
    30   117   118    1
    31   117   116    1
    32   118   119    2
    33   112   116   am
    34   112   111    1
    35   127   126    2
    36   143   145    1
    37   143   144    1
    38   150   151    1
    39   150   147    1
    40    46    45    2
    41   126   125    1
    42    45    44    1
    43   110   111    1
    44    49    47    1
    45   111   114    1
    46   147   146    1
    47   147   148    1
    48   114   115    1
    49   125   124    1
    50   125   128    1
    51    44    47    1
    52    44    43    1
    53    47    48    1
    54   148   149    2
    55    18    17    2
    56   128   129    1
    57    19    16    1
    58   159   157    1
    59   157   156    1
    60   152   153    1
    61    48    50    1
    62    17    16    1
    63   129   130    1
    64    16    15    1
    65   130   131    1
    66   156   153    1
    67   156   158    1
    68   133   132    1
    69   153   154    1
    70    20    21    1
    71    21    22    1
    72   131   132    2
    73   132   134    1
    74    15    10   am
    75   169   167   ar
    76   169   168   ar
    77    11    10    2
    78   167   165   ar
    79    10     9    1
    80   109   107    1
    81   154   160   am
    82   154   155    2
    83   160   161    1
    84    22    23    2
    85   168   166   ar
    86    93    92    2
    87    41    40    1
    88   165   166   ar
    89   165   164    1
    90   107   108    1
    91   107   106    2
    92    37    38    2
    93    37    36    1
    94    14    12    1
    95   161   164    1
    96   161   162    1
    97   162   163    2
    98     9    12    1
    99     9     8    1
   100    40    42    1
   101    40    39    1
   102   106   105    1
   103    13    12    1
   104    98    96   am
   105    92    91    1
   106    36    39    1
   107    36    35    1
   108     8     3   am
   109    94    91    1
   110    94    95    1
   111    96    95    1
   112    96    97    2
   113    91    90    1
   114     6     5    1
   115   105   104    1
   116    24    25    1
   117   104   103    1
   118     3     2    1
   119     3     4    2
   120    99   100    1
   121    29    28    1
   122     5     2    1
   123     5     7    1
   124     2     1    1
   125    31    32    1
   126    31    26   am
   127    84    85    1
   128    84    83    1
   129   103   100    1
   130    78    77    2
   131    25    28    1
   132    25    26    1
   133    32    33    1
   134    28    30    1
   135    85    86    1
   136    33    34    2
   137    86    87    2
   138   100   101    1
   139    77    76    1
   140    77    79   am
   141    26    27    2
   142    76    75    1
   143    80    83    1
   144    80    79    1
   145    80    81    1
   146    75    70   am
   147    89    87    1
   148    87    88    1
   149   101   102    2
   150    72    73    1
   151    72    69    1
   152    72    74    1
   153    81    82    2
   154    70    69    1
   155    70    71    2
   156    69    68    1
