@<TRIPOS>MOLECULE
tmp/2oq5A00.pdb
 130 129 0 0 0
SMALL
GASTEIGER

@<TRIPOS>ATOM
      1  N         -0.8320   27.7960   13.3980 N.3    41  HIS41      -0.1241
      2  CA        -0.8880   28.8410   14.4200 C.3    41  HIS41       0.1621
      3  C          0.3480   28.9410   15.3110 C.2    41  HIS41       0.2264
      4  O          0.5650   29.9650   15.9550 O.2    41  HIS41      -0.2867
      5  CB        -2.1860   28.7690   15.2490 C.3    41  HIS41       0.0745
      6  CG        -2.1910   27.7160   16.3120 C.ar   41  HIS41       0.0817
      7  ND1       -2.8700   26.5240   16.1730 N.ar   41  HIS41      -0.2268
      8  CD2       -1.6520   27.6990   17.5550 C.ar   41  HIS41       0.1154
      9  CE1       -2.7500   25.8190   17.2850 C.ar   41  HIS41       0.1986
     10  NE2       -2.0160   26.5110   18.1390 N.ar   41  HIS41      -0.2212
     11  N         -8.2290   15.8090   27.6390 N.3   176  ASP176     -0.1225
     12  CA        -8.1800   16.7400   26.5120 C.3   176  ASP176      0.1805
     13  C         -6.7750   17.3160   26.3920 C.2   176  ASP176      0.2598
     14  O         -5.9540   17.1950   27.3130 O.2   176  ASP176     -0.2718
     15  CB        -9.1800   17.8890   26.7580 C.3   176  ASP176      0.1424
     16  CG        -9.4130   18.7770   25.5320 C.2   176  ASP176      0.3668
     17  OD1       -9.0250   18.4140   24.4020 O.co2 176  ASP176     -0.2456
     18  OD2      -10.0180   19.8600   25.7100 O.co2 176  ASP176     -0.2456
     19  N         -6.4760   17.8630   25.2190 N.am  177  ALA177     -0.1966
     20  CA        -5.2020   18.5310   24.9900 C.3   177  ALA177      0.1728
     21  C         -5.4460   19.9430   25.5290 C.2   177  ALA177      0.2616
     22  O         -6.5900   20.3180   25.8000 O.2   177  ALA177     -0.2715
     23  CB        -4.8780   18.5750   23.4960 C.3   177  ALA177      0.0334
     24  N         -4.3860   20.7230   25.6940 N.am  178  CYS178     -0.1954
     25  CA        -4.5240   22.0790   26.2130 C.3   178  CYS178      0.1843
     26  C         -3.4300   22.9720   25.6190 C.2   178  CYS178      0.2625
     27  O         -2.6950   22.5330   24.7410 O.2   178  CYS178     -0.2714
     28  CB        -4.4540   22.0460   27.7460 C.3   178  CYS178      0.0997
     29  SG        -5.1590   23.4950   28.5940 S.3   178  CYS178     -0.0797
     30  N         -3.3410   24.2210   26.0720 N.am  179  GLN179     -0.1977
     31  CA        -2.3290   25.1480   25.5630 C.3   179  GLN179      0.1601
     32  C         -0.9400   24.5410   25.7340 C.2   179  GLN179      0.2287
     33  O         -0.6280   23.9750   26.7840 O.2   179  GLN179     -0.2864
     34  CB        -2.4020   26.4980   26.2870 C.3   179  GLN179      0.0394
     35  CG        -3.6590   27.3210   25.9960 C.3   179  GLN179      0.0908
     36  CD        -4.8070   27.0270   26.9510 C.2   179  GLN179      0.2608
     37  OE1       -4.6620   27.1370   28.1730 O.2   179  GLN179     -0.2717
     38  NE2       -5.9620   26.6720   26.3960 N.am  179  GLN179     -0.0878
     39  N         -0.5990   22.2600   21.3530 N.3   182  SER182     -0.1217
     40  CA        -0.8600   22.6620   19.9690 C.3   182  SER182      0.1889
     41  C          0.2270   22.2060   19.0140 C.2   182  SER182      0.2288
     42  O          1.4130   22.3530   19.3050 O.2   182  SER182     -0.2866
     43  CB        -0.9910   24.1880   19.8790 C.3   182  SER182      0.2089
     44  OG        -2.0980   24.6440   20.6300 O.3   182  SER182     -0.2183
     45  N         -3.0820   18.6030   17.0330 N.3   201  VAL201     -0.1231
     46  CA        -3.7340   19.4260   18.0510 C.3   201  VAL201      0.1692
     47  C         -3.8790   20.8450   17.5080 C.2   201  VAL201      0.2593
     48  O         -2.8910   21.4860   17.1600 O.2   201  VAL201     -0.2718
     49  CB        -2.9350   19.4400   19.3710 C.3   201  VAL201      0.0266
     50  CG1       -3.6520   20.2920   20.4100 C.3   201  VAL201      0.0020
     51  CG2       -2.7510   18.0190   19.8800 C.3   201  VAL201      0.0020
     52  N         -5.1190   21.3260   17.4470 N.am  202  SER202     -0.1938
     53  CA        -5.3920   22.6440   16.8880 C.3   202  SER202      0.2055
     54  C         -6.0370   23.6580   17.8340 C.2   202  SER202      0.2643
     55  O         -5.4310   24.6830   18.1480 O.2   202  SER202     -0.2714
     56  CB        -6.2430   22.4880   15.6190 C.3   202  SER202      0.2130
     57  OG        -6.4360   23.7290   14.9680 O.3   202  SER202     -0.2179
     58  N         -7.2750   23.4000   18.2530 N.am  203  TRP203     -0.1959
     59  CA        -7.9680   24.3300   19.1390 C.3   203  TRP203      0.1771
     60  C         -9.0680   23.6870   19.9690 C.2   203  TRP203      0.2620
     61  O         -9.2670   22.4740   19.9340 O.2   203  TRP203     -0.2715
     62  CB        -8.5280   25.5210   18.3390 C.3   203  TRP203      0.0590
     63  CG        -9.5740   25.1650   17.3060 C.ar  203  TRP203      0.0006
     64  CD1       -9.3740   24.5110   16.1220 C.ar  203  TRP203      0.0946
     65  CD2      -10.9790   25.4600   17.3670 C.ar  203  TRP203      0.0152
     66  NE1      -10.5640   24.3820   15.4440 N.ar  203  TRP203     -0.2442
     67  CE2      -11.5640   24.9530   16.1850 C.ar  203  TRP203      0.0810
     68  CE3      -11.7980   26.1030   18.3060 C.ar  203  TRP203      0.0012
     69  CZ2      -12.9360   25.0660   15.9160 C.ar  203  TRP203      0.0191
     70  CZ3      -13.1630   26.2160   18.0390 C.ar  203  TRP203      0.0001
     71  CH2      -13.7150   25.6970   16.8510 C.ar  203  TRP203      0.0015
     72  N         -9.7520   24.5210   20.7440 N.am  204  GLY204     -0.1940
     73  CA       -10.8350   24.0600   21.5920 C.3   204  GLY204      0.2014
     74  C        -11.3420   25.2080   22.4400 C.2   204  GLY204      0.2639
     75  O        -10.7600   26.2910   22.4340 O.2   204  GLY204     -0.2714
     76  N        -12.4730   25.0030   23.1030 N.am  205  ASP205     -0.1957
     77  CA       -13.0260   26.0240   23.9830 C.3   205  ASP205      0.1840
     78  C        -12.3930   25.7060   25.3350 C.2   205  ASP205      0.2622
     79  O        -12.8160   24.7730   26.0190 O.2   205  ASP205     -0.2715
     80  CB       -14.5510   25.8930   24.0480 C.3   205  ASP205      0.1450
     81  CG       -15.2140   27.0330   24.8110 C.2   205  ASP205      0.3671
     82  OD1      -14.5140   27.7830   25.5250 O.co2 205  ASP205     -0.2456
     83  OD2      -16.4500   27.1690   24.7000 O.co2 205  ASP205     -0.2456
     84  N        -11.3740   26.4790   25.7050 N.am  206  GLU206     -0.1963
     85  CA       -10.6310   26.2640   26.9470 C.3   206  GLU206      0.1733
     86  C        -10.0260   24.8530   26.9020 C.2   206  GLU206      0.2616
     87  O         -9.5340   24.4300   25.8560 O.2   206  GLU206     -0.2715
     88  CB       -11.5270   26.4610   28.1810 C.3   206  GLU206      0.0429
     89  CG       -12.1060   27.8750   28.2940 C.3   206  GLU206      0.1163
     90  CD       -12.5500   28.2320   29.7040 C.2   206  GLU206      0.3649
     91  OE1      -13.4300   27.5420   30.2610 O.co2 206  GLU206     -0.2457
     92  OE2      -12.0110   29.2130   30.2580 O.co2 206  GLU206     -0.2457
     93  N        -10.0760   24.1230   28.0140 N.am  207  CYS207     -0.1968
     94  CA        -9.5370   22.7640   28.0610 C.3   207  CYS207      0.1712
     95  C        -10.3880   21.8620   28.9400 C.2   207  CYS207      0.2296
     96  O        -10.7610   22.2410   30.0490 O.2   207  CYS207     -0.2864
     97  CB        -8.1010   22.7570   28.5970 C.3   207  CYS207      0.0983
     98  SG        -6.9410   23.8030   27.6690 S.3   207  CYS207     -0.0798
     99  N        -17.4900   20.3400   24.8500 N.3   212  LYS212     -0.1245
    100  CA       -16.5440   21.0330   23.9720 C.3   212  LYS212      0.1561
    101  C        -15.2770   20.1920   23.8080 C.2   212  LYS212      0.2260
    102  O        -14.2420   20.4870   24.4100 O.2   212  LYS212     -0.2867
    103  CB       -16.1810   22.4150   24.5380 C.3   212  LYS212      0.0271
    104  CG       -17.3600   23.3690   24.7390 C.3   212  LYS212      0.0035
    105  CD       -18.1030   23.6320   23.4340 C.3   212  LYS212      0.0206
    106  CE       -19.3100   24.5420   23.6420 C.3   212  LYS212      0.1093
    107  NZ       -18.9270   25.9520   23.8950 N.3   212  LYS212     -0.1314
    108  N        -11.8460   18.4240   22.0780 N.3   214  GLY214     -0.1210
    109  CA       -10.7180   19.0320   21.3940 C.3   214  GLY214      0.1956
    110  C        -10.8860   18.9910   19.8840 C.2   214  GLY214      0.2612
    111  O        -11.4740   18.0530   19.3410 O.2   214  GLY214     -0.2717
    112  N        -10.4200   20.0360   19.2070 N.am  215  VAL215     -0.1965
    113  CA       -10.5080   20.0820   17.7560 C.3   215  VAL215      0.1727
    114  C         -9.1150   19.8970   17.1900 C.2   215  VAL215      0.2616
    115  O         -8.1350   20.4660   17.6890 O.2   215  VAL215     -0.2715
    116  CB       -11.1680   21.3730   17.2440 C.3   215  VAL215      0.0290
    117  CG1      -11.3890   21.2810   15.7370 C.3   215  VAL215      0.0023
    118  CG2      -12.5030   21.5610   17.9370 C.3   215  VAL215      0.0023
    119  N         -9.0390   19.0540   16.1680 N.am  216  TYR216     -0.1974
    120  CA        -7.7720   18.7130   15.5480 C.3   216  TYR216      0.1639
    121  C         -7.8070   18.9000   14.0450 C.2   216  TYR216      0.2290
    122  O         -8.8570   18.7850   13.4190 O.2   216  TYR216     -0.2864
    123  CB        -7.4540   17.2410   15.8270 C.3   216  TYR216      0.0560
    124  CG        -7.3080   16.8880   17.2900 C.ar  216  TYR216     -0.0198
    125  CD1       -8.4280   16.7770   18.1220 C.ar  216  TYR216     -0.0009
    126  CD2       -6.0490   16.6680   17.8420 C.ar  216  TYR216     -0.0009
    127  CE1       -8.2890   16.4560   19.4770 C.ar  216  TYR216      0.0417
    128  CE2       -5.8990   16.3480   19.1850 C.ar  216  TYR216      0.0417
    129  CZ        -7.0180   16.2440   19.9980 C.ar  216  TYR216      0.1957
    130  OH        -6.8540   15.9330   21.3310 O.3   216  TYR216     -0.2866
@<TRIPOS>BOND
     1     1     2    1
     2   122   121    2
     3   121   120    1
     4     2     5    1
     5     2     3    1
     6    57    56    1
     7     5     6    1
     8     3     4    2
     9    66    64   ar
    10    66    67   ar
    11   120   123    1
    12   120   119    1
    13    56    53    1
    14   117   116    1
    15   123   124    1
    16    69    67   ar
    17    69    71   ar
    18    64    63   ar
    19   119   114   am
    20     7     6   ar
    21     7     9   ar
    22    67    65   ar
    23     6     8   ar
    24    71    70   ar
    25    53    52    1
    26    53    54    1
    27    45    46    1
    28    48    47    2
    29   114   115    2
    30   114   113    1
    31   116   113    1
    32   116   118    1
    33     9    10   ar
    34   124   126   ar
    35   124   125   ar
    36    63    65   ar
    37    63    62    1
    38    65    68   ar
    39    52    47   am
    40    47    46    1
    41     8    10   ar
    42   113   112    1
    43    54    55    2
    44    54    58   am
    45   126   128   ar
    46    70    68   ar
    47    46    49    1
    48   125   127   ar
    49    58    59    1
    50    62    59    1
    51    41    42    2
    52    41    40    1
    53    59    60    1
    54   128   129   ar
    55   112   110   am
    56   111   110    2
    57    49    51    1
    58    49    50    1
    59   127   129   ar
    60    43    40    1
    61    43    44    1
    62   110   109    1
    63    61    60    2
    64    60    72   am
    65    40    39    1
    66   129   130    1
    67    72    73    1
    68   109   108    1
    69    73    74    1
    70    75    74    2
    71    74    76   am
    72    76    77    1
    73   105   106    1
    74   105   104    1
    75    23    20    1
    76   106   107    1
    77   101   100    1
    78   101   102    2
    79   100   103    1
    80   100    99    1
    81    77    80    1
    82    77    78    1
    83    80    81    1
    84    17    16   ar
    85   103   104    1
    86    83    81   ar
    87    27    26    2
    88    81    82   ar
    89    20    19    1
    90    20    21    1
    91    19    13   am
    92    78    84   am
    93    78    79    2
    94    21    24   am
    95    21    22    2
    96    16    18   ar
    97    16    15    1
    98    31    32    1
    99    31    30    1
   100    31    34    1
   101    26    30   am
   102    26    25    1
   103    24    25    1
   104    84    85    1
   105    32    33    2
   106    87    86    2
   107    35    34    1
   108    35    36    1
   109    25    28    1
   110    13    12    1
   111    13    14    2
   112    38    36   am
   113    12    15    1
   114    12    11    1
   115    86    85    1
   116    86    93   am
   117    85    88    1
   118    36    37    2
   119    98    29    1
   120    98    97    1
   121    28    29    1
   122    93    94    1
   123    94    97    1
   124    94    95    1
   125    88    89    1
   126    89    90    1
   127    95    96    2
   128    90    92   ar
   129    90    91   ar
