@<TRIPOS>MOLECULE
tmp/2oqiB00.pdb
 186 181 0 0 0
SMALL
GASTEIGER

@<TRIPOS>ATOM
      1  N         30.1000   -4.8270   61.2950 N.3    87  ARG87      -0.1245
      2  CA        31.0610   -4.2630   60.3600 C.3    87  ARG87       0.1563
      3  C         32.2930   -5.1120   60.0810 C.2    87  ARG87       0.2260
      4  O         32.8030   -5.1210   58.9530 O.2    87  ARG87      -0.2867
      5  CB        31.5030   -2.8880   60.8420 C.3    87  ARG87       0.0307
      6  CG        32.8020   -2.4310   60.2400 C.3    87  ARG87       0.0489
      7  CD        32.6160   -1.1640   59.4940 C.3    87  ARG87       0.2205
      8  NE        32.1500   -0.0820   60.3470 N.pl3  87  ARG87      -0.0865
      9  CZ        31.5270    0.9920   59.8870 C.cat  87  ARG87       0.5346
     10  NH1       31.3050    1.0990   58.5940 N.pl3  87  ARG87       0.1354
     11  NH2       31.1340    1.9520   60.7070 N.pl3  87  ARG87       0.1354
     12  N         33.4220   -2.0540   66.6490 N.3   167  GLU167     -0.1231
     13  CA        33.1230   -0.8780   65.8590 C.3   167  GLU167      0.1699
     14  C         33.8980    0.3620   66.2330 C.2   167  GLU167      0.2592
     15  O         34.3250    1.1040   65.3520 O.2   167  GLU167     -0.2718
     16  CB        31.6400   -0.5490   65.9860 C.3   167  GLU167      0.0402
     17  CG        31.2180    0.8070   65.4220 C.3   167  GLU167      0.1161
     18  CD        31.1820    0.8390   63.9000 C.2   167  GLU167      0.3649
     19  OE1       31.2780   -0.2320   63.2640 O.co2 167  GLU167     -0.2457
     20  OE2       31.0420    1.9370   63.3310 O.co2 167  GLU167     -0.2457
     21  N         34.0850    0.5840   67.5310 N.am  168  GLU168     -0.1966
     22  CA        34.7360    1.7980   68.0030 C.3   168  GLU168      0.1733
     23  C         36.2210    1.8470   68.3200 C.2   168  GLU168      0.2616
     24  O         36.9050    2.7900   67.9040 O.2   168  GLU168     -0.2715
     25  CB        33.9890    2.3410   69.2200 C.3   168  GLU168      0.0429
     26  CG        32.5780    2.7900   68.9390 C.3   168  GLU168      0.1163
     27  CD        32.4810    3.5970   67.6740 C.2   168  GLU168      0.3649
     28  OE1       33.3960    4.3930   67.4090 O.co2 168  GLU168     -0.2457
     29  OE2       31.4870    3.4440   66.9480 O.co2 168  GLU168     -0.2457
     30  N         36.7300    0.8700   69.0650 N.am  169  VAL169     -0.1977
     31  CA        38.1360    0.9110   69.4340 C.3   169  VAL169      0.1596
     32  C         39.1100    0.0280   68.6760 C.2   169  VAL169      0.2287
     33  O         40.1870    0.4950   68.3170 O.2   169  VAL169     -0.2864
     34  CB        38.3300    0.6890   70.9560 C.3   169  VAL169      0.0276
     35  CG1       37.0230    0.3150   71.6040 C.3   169  VAL169      0.0022
     36  CG2       39.3750   -0.3550   71.1930 C.3   169  VAL169      0.0022
     37  N         38.2510   -1.8290   65.7750 N.3   171  SER171     -0.1217
     38  CA        37.8730   -1.8610   64.3760 C.3   171  SER171      0.1889
     39  C         38.1480   -3.2410   63.8070 C.2   171  SER171      0.2288
     40  O         38.5280   -3.3930   62.6390 O.2   171  SER171     -0.2866
     41  CB        38.6360   -0.8110   63.5930 C.3   171  SER171      0.2089
     42  OG        37.7950   -0.2930   62.5900 O.3   171  SER171     -0.2183
     43  N         43.6470   10.4010   67.0250 N.3   318  ARG318     -0.1231
     44  CA        42.6730   10.7980   66.0170 C.3   318  ARG318      0.1694
     45  C         41.3640   10.0930   66.3640 C.2   318  ARG318      0.2592
     46  O         40.3000   10.7150   66.4140 O.2   318  ARG318     -0.2718
     47  CB        43.1610   10.4120   64.6230 C.3   318  ARG318      0.0321
     48  CG        44.3420   11.2640   64.1820 C.3   318  ARG318      0.0489
     49  CD        44.7700   11.0180   62.7520 C.3   318  ARG318      0.2205
     50  NE        45.6460   12.0880   62.2910 N.pl3 318  ARG318     -0.0865
     51  CZ        46.9320   11.9460   62.0070 C.cat 318  ARG318      0.5346
     52  NH1       47.5140   10.7710   62.1280 N.pl3 318  ARG318      0.1354
     53  NH2       47.6390   12.9890   61.6050 N.pl3 318  ARG318      0.1354
     54  N         41.4580    8.7880   66.6100 N.am  319  PHE319     -0.1962
     55  CA        40.3040    7.9760   67.0070 C.3   319  PHE319      0.1771
     56  C         40.6740    7.1890   68.2770 C.2   319  PHE319      0.2619
     57  O         39.8980    7.1180   69.2250 O.2   319  PHE319     -0.2715
     58  CB        39.8480    7.0630   65.8470 C.3   319  PHE319      0.0574
     59  CG        39.1270    7.8070   64.7420 C.ar  319  PHE319     -0.0200
     60  CD1       37.8230    8.2510   64.9060 C.ar  319  PHE319     -0.0042
     61  CD2       39.7720    8.0990   63.5500 C.ar  319  PHE319     -0.0042
     62  CE1       37.1910    8.9720   63.9000 C.ar  319  PHE319     -0.0003
     63  CE2       39.1440    8.8200   62.5390 C.ar  319  PHE319     -0.0003
     64  CZ        37.8550    9.2560   62.7140 C.ar  319  PHE319     -0.0000
     65  N         41.8630    6.6030   68.2990 N.am  320  ARG320     -0.1977
     66  CA        42.3280    5.9240   69.4930 C.3   320  ARG320      0.1597
     67  C         43.7960    6.3100   69.5440 C.2   320  ARG320      0.2287
     68  O         44.3840    6.6400   68.5230 O.2   320  ARG320     -0.2864
     69  CB        42.1400    4.4240   69.3680 C.3   320  ARG320      0.0334
     70  CG        42.9620    3.8500   68.3100 C.3   320  ARG320      0.0492
     71  CD        42.7160    2.3890   68.2050 C.3   320  ARG320      0.2205
     72  NE        43.5340    1.9430   67.0780 N.pl3 320  ARG320     -0.0865
     73  CZ        43.3590    0.8130   66.4140 C.cat 320  ARG320      0.5346
     74  NH1       44.1590    0.5090   65.4020 N.pl3 320  ARG320      0.1354
     75  NH2       42.4160   -0.0330   66.7670 N.pl3 320  ARG320      0.1354
     76  N         30.0230   15.1330   55.1780 N.3   509  TYR509     -0.1241
     77  CA        30.2400   14.1330   56.2140 C.3   509  TYR509      0.1605
     78  C         30.5700   14.9180   57.4930 C.2   509  TYR509      0.2264
     79  O         29.8710   14.8190   58.4870 O.2   509  TYR509     -0.2867
     80  CB        31.3830   13.1790   55.8820 C.3   509  TYR509      0.0534
     81  CG        31.4890   12.0900   56.9300 C.ar  509  TYR509     -0.0201
     82  CD1       30.5630   11.0610   56.9790 C.ar  509  TYR509     -0.0009
     83  CD2       32.4720   12.1370   57.9200 C.ar  509  TYR509     -0.0009
     84  CE1       30.6040   10.1100   57.9770 C.ar  509  TYR509      0.0417
     85  CE2       32.5270   11.1900   58.9290 C.ar  509  TYR509      0.0417
     86  CZ        31.5890   10.1720   58.9550 C.ar  509  TYR509      0.1957
     87  OH        31.6370    9.2090   59.9450 O.3   509  TYR509     -0.2866
     88  N         25.3280    8.7140   57.5760 N.3   592  SER592     -0.1202
     89  CA        25.8500    8.5970   58.9500 C.3   592  SER592      0.2020
     90  C         25.9620    9.9610   59.5280 C.2   592  SER592      0.2618
     91  O         25.0160   10.7320   59.5350 O.2   592  SER592     -0.2717
     92  CB        27.2600    8.0140   59.0330 C.3   592  SER592      0.2103
     93  OG        27.4000    6.8530   58.2530 O.3   592  SER592     -0.2182
     94  N         27.1640   10.2600   59.9950 N.am  593  TYR593     -0.1975
     95  CA        27.4370   11.5510   60.5780 C.3   593  TYR593      0.1639
     96  C         27.0610   12.6520   59.6000 C.2   593  TYR593      0.2290
     97  O         26.5500   13.6860   60.0040 O.2   593  TYR593     -0.2864
     98  CB        28.9090   11.6660   60.9610 C.3   593  TYR593      0.0560
     99  CG        29.1470   12.8080   61.9160 C.ar  593  TYR593     -0.0198
    100  CD1       29.1610   14.1230   61.4720 C.ar  593  TYR593     -0.0009
    101  CD2       29.3330   12.5700   63.2760 C.ar  593  TYR593     -0.0009
    102  CE1       29.3620   15.1670   62.3540 C.ar  593  TYR593      0.0417
    103  CE2       29.5270   13.6030   64.1610 C.ar  593  TYR593      0.0417
    104  CZ        29.5470   14.9020   63.7010 C.ar  593  TYR593      0.1957
    105  OH        29.7860   15.9280   64.5940 O.3   593  TYR593     -0.2866
    106  N         22.1180   10.5120   62.6410 N.3   618  VAL618     -0.1245
    107  CA        22.0340   10.4750   64.0820 C.3   618  VAL618      0.1561
    108  C         21.1770   11.6980   64.3910 C.2   618  VAL618      0.2260
    109  O         21.3860   12.7610   63.8080 O.2   618  VAL618     -0.2867
    110  CB        23.4290   10.6320   64.7330 C.3   618  VAL618      0.0252
    111  CG1       23.2860   11.0510   66.1850 C.3   618  VAL618      0.0019
    112  CG2       24.1940    9.3370   64.6280 C.3   618  VAL618      0.0019
    113  N         22.6720   12.5690   70.2640 N.3   621  TRP621     -0.1241
    114  CA        23.7870   11.8120   70.7810 C.3   621  TRP621      0.1605
    115  C         23.5300   10.8260   71.8940 C.2   621  TRP621      0.2264
    116  O         24.3190    9.9170   72.0860 O.2   621  TRP621     -0.2867
    117  CB        24.9070   12.7800   71.1540 C.3   621  TRP621      0.0550
    118  CG        25.4070   13.4580   69.9340 C.ar  621  TRP621      0.0003
    119  CD1       25.2280   14.7640   69.5830 C.ar  621  TRP621      0.0946
    120  CD2       26.0420   12.8250   68.8150 C.ar  621  TRP621      0.0152
    121  NE1       25.7030   14.9820   68.3130 N.ar  621  TRP621     -0.2442
    122  CE2       26.2080   13.8080   67.8170 C.ar  621  TRP621      0.0810
    123  CE3       26.4840   11.5190   68.5570 C.ar  621  TRP621      0.0012
    124  CZ2       26.7940   13.5240   66.5830 C.ar  621  TRP621      0.0191
    125  CZ3       27.0670   11.2450   67.3300 C.ar  621  TRP621      0.0001
    126  CH2       27.2160   12.2400   66.3640 C.ar  621  TRP621      0.0015
    127  N         23.5580    7.2780   70.2530 N.3   624  TYR624     -0.1241
    128  CA        24.7260    6.5960   69.6980 C.3   624  TYR624      0.1605
    129  C         25.5640    5.8740   70.7610 C.2   624  TYR624      0.2264
    130  O         25.3410    6.0530   71.9490 O.2   624  TYR624     -0.2867
    131  CB        25.5750    7.5890   68.8980 C.3   624  TYR624      0.0534
    132  CG        26.3790    6.8910   67.8350 C.ar  624  TYR624     -0.0201
    133  CD1       25.7810    5.9740   66.9820 C.ar  624  TYR624     -0.0009
    134  CD2       27.7420    7.0620   67.7450 C.ar  624  TYR624     -0.0009
    135  CE1       26.5240    5.2410   66.0870 C.ar  624  TYR624      0.0417
    136  CE2       28.4970    6.3320   66.8480 C.ar  624  TYR624      0.0417
    137  CZ        27.8880    5.4200   66.0290 C.ar  624  TYR624      0.1957
    138  OH        28.6620    4.6530   65.1910 O.3   624  TYR624     -0.2866
    139  N         32.1130    6.2160   71.1130 N.3   628  TYR628     -0.1241
    140  CA        32.2350    7.2680   70.1100 C.3   628  TYR628      0.1605
    141  C         31.7230    8.6160   70.6080 C.2   628  TYR628      0.2264
    142  O         32.4480    9.6040   70.6350 O.2   628  TYR628     -0.2867
    143  CB        31.4850    6.8780   68.8360 C.3   628  TYR628      0.0534
    144  CG        31.5900    7.8990   67.7280 C.ar  628  TYR628     -0.0201
    145  CD1       30.7860    9.0190   67.7170 C.ar  628  TYR628     -0.0009
    146  CD2       32.5080    7.7500   66.7060 C.ar  628  TYR628     -0.0009
    147  CE1       30.8930    9.9540   66.7250 C.ar  628  TYR628      0.0417
    148  CE2       32.6190    8.6850   65.7110 C.ar  628  TYR628      0.0417
    149  CZ        31.8130    9.7820   65.7230 C.ar  628  TYR628      0.1957
    150  OH        31.9330   10.7270   64.7350 O.3   628  TYR628     -0.2866
    151  N         33.7280   10.3640   73.4440 N.3   631  ARG631     -0.1245
    152  CA        35.0500   10.8300   73.0790 C.3   631  ARG631      0.1563
    153  C         34.9620   12.3000   72.7160 C.2   631  ARG631      0.2260
    154  O         35.8670   13.0700   72.9980 O.2   631  ARG631     -0.2867
    155  CB        35.5650   10.0280   71.8820 C.3   631  ARG631      0.0307
    156  CG        36.9420   10.3930   71.4060 C.3   631  ARG631      0.0489
    157  CD        37.6230    9.1610   70.8660 C.3   631  ARG631      0.2205
    158  NE        36.9250    8.5820   69.7220 N.pl3 631  ARG631     -0.0865
    159  CZ        36.8270    7.2750   69.4810 C.cat 631  ARG631      0.5346
    160  NH1       37.3680    6.3920   70.3150 N.pl3 631  ARG631      0.1354
    161  NH2       36.2200    6.8510   68.3800 N.pl3 631  ARG631      0.1354
    162  N         24.0920   -0.0620   64.0120 N.3   672  ASN672     -0.1225
    163  CA        25.0050    1.0270   64.3280 C.3   672  ASN672      0.1785
    164  C         24.2520    2.2900   64.7300 C.2   672  ASN672      0.2597
    165  O         24.2960    2.7270   65.8790 O.2   672  ASN672     -0.2718
    166  CB        25.8430    1.3050   63.0980 C.3   672  ASN672      0.1169
    167  CG        27.1490    1.9150   63.4280 C.2   672  ASN672      0.2627
    168  OD1       27.2310    2.7820   64.2920 O.2   672  ASN672     -0.2716
    169  ND2       28.1980    1.4780   62.7370 N.am  672  ASN672     -0.0877
    170  N         23.5960    2.9000   63.7550 N.am  673  VAL673     -0.1980
    171  CA        22.7900    4.0760   64.0070 C.3   673  VAL673      0.1595
    172  C         21.4200    3.4620   63.8760 C.2   673  VAL673      0.2287
    173  O         20.9600    3.2010   62.7760 O.2   673  VAL673     -0.2864
    174  CB        22.9810    5.1380   62.9330 C.3   673  VAL673      0.0276
    175  CG1       22.1680    6.3730   63.2790 C.3   673  VAL673      0.0022
    176  CG2       24.4380    5.4880   62.8290 C.3   673  VAL673      0.0022
    177  N         23.3110   -0.1250   58.4900 N.3   702  HIS702     -0.1241
    178  CA        23.9550    1.1370   58.2500 C.3   702  HIS702      0.1621
    179  C         24.5690    1.2840   56.8680 C.2   702  HIS702      0.2264
    180  O         24.8490    2.3890   56.4260 O.2   702  HIS702     -0.2867
    181  CB        25.0080    1.3750   59.3290 C.3   702  HIS702      0.0745
    182  CG        25.3420    2.8150   59.5160 C.ar  702  HIS702      0.0817
    183  ND1       24.3720    3.7800   59.6690 N.ar  702  HIS702     -0.2268
    184  CD2       26.5260    3.4580   59.5640 C.ar  702  HIS702      0.1154
    185  CE1       24.9460    4.9570   59.8020 C.ar  702  HIS702      0.1986
    186  NE2       26.2540    4.7890   59.7420 N.ar  702  HIS702     -0.2212
@<TRIPOS>BOND
     1    76    77    1
     2    80    77    1
     3    80    81    1
     4    77    78    1
     5   180   179    2
     6   179   178    1
     7    81    82   ar
     8    81    83   ar
     9    82    84   ar
    10    78    79    2
    11    88    89    1
    12    83    85   ar
    13    84    86   ar
    14   178   177    1
    15   178   181    1
    16    93    92    1
    17    10     9    1
    18    85    86   ar
    19    89    92    1
    20    89    90    1
    21     4     3    2
    22    86    87    1
    23   181   182    1
    24     7     6    1
    25     7     8    1
    26   182   184   ar
    27   182   183   ar
    28    90    91    2
    29    90    94   am
    30   184   186   ar
    31    96    97    2
    32    96    95    1
    33   183   185   ar
    34   186   185   ar
    35     9     8    2
    36     9    11    1
    37    94    95    1
    38     3     2    1
    39     6     5    1
    40     2     5    1
    41     2     1    1
    42    95    98    1
    43    98    99    1
    44   100    99   ar
    45   100   102   ar
    46    53    51    1
    47    99   101   ar
    48    51    52    1
    49    51    50    2
    50    50    49    1
    51   102   104   ar
    52    63    64   ar
    53    63    61   ar
    54    42    41    1
    55    40    39    2
    56   106   107    1
    57    64    62   ar
    58   169   167   am
    59    49    48    1
    60   173   172    2
    61   176   174    1
    62   174   175    1
    63   174   171    1
    64   166   167    1
    65   166   163    1
    66    19    18   ar
    67   101   103   ar
    68    20    18   ar
    69   167   168    2
    70    61    59   ar
    71    41    38    1
    72   104   103   ar
    73   104   105    1
    74   170   171    1
    75   170   164   am
    76    39    38    1
    77   109   108    2
    78   172   171    1
    79    18    17    1
    80    62    60   ar
    81   162   163    1
    82   107   108    1
    83   107   110    1
    84    48    47    1
    85   163   164    1
    86    38    37    1
    87    47    44    1
    88   112   110    1
    89   164   165    2
    90   110   111    1
    91   150   149    1
    92    59    60   ar
    93    59    58    1
    94   138   137    1
    95    15    14    2
    96    74    73    1
    97    17    16    1
    98   148   149   ar
    99   148   146   ar
   100   149   147   ar
   101    58    55    1
   102    13    16    1
   103    13    14    1
   104    13    12    1
   105    44    45    1
   106    44    43    1
   107   137   135   ar
   108   137   136   ar
   109   135   133   ar
   110    14    21   am
   111    45    46    2
   112    45    54   am
   113   126   124   ar
   114   126   125   ar
   115    73    75    1
   116    73    72    2
   117   124   122   ar
   118    54    55    1
   119   146   144   ar
   120   147   145   ar
   121   136   134   ar
   122    29    27   ar
   123   133   132   ar
   124    55    56    1
   125    72    71    1
   126   125   123   ar
   127    28    27   ar
   128    21    22    1
   129    27    26    1
   130   145   144   ar
   131   144   143    1
   132   134   132   ar
   133   122   121   ar
   134   122   120   ar
   135   132   131    1
   136    24    23    2
   137    22    23    1
   138    22    25    1
   139    71    70    1
   140    56    65   am
   141    56    57    2
   142    65    66    1
   143    70    69    1
   144   121   119   ar
   145    33    32    2
   146    23    30   am
   147   161   159    1
   148    68    67    2
   149   123   120   ar
   150    32    31    1
   151   120   118   ar
   152   143   140    1
   153   131   128    1
   154    26    25    1
   155    30    31    1
   156    69    66    1
   157    31    34    1
   158   159   158    2
   159   159   160    1
   160    66    67    1
   161   119   118   ar
   162   128   127    1
   163   128   129    1
   164   158   157    1
   165   118   117    1
   166   140   141    1
   167   140   139    1
   168   113   114    1
   169   141   142    2
   170   129   130    2
   171   114   117    1
   172   114   115    1
   173   157   156    1
   174    34    36    1
   175    34    35    1
   176   156   155    1
   177   155   152    1
   178   115   116    2
   179   153   154    2
   180   153   152    1
   181   152   151    1
