@<TRIPOS>MOLECULE
tmp/2oqoA00.pdb
 110 103 0 0 0
SMALL
GASTEIGER

@<TRIPOS>ATOM
      1  N         45.0060   39.6040   24.4500 N.3    25  ALA25      -0.1231
      2  CA        46.2540   38.9360   24.0880 C.3    25  ALA25       0.1694
      3  C         46.0830   38.0100   22.8910 C.2    25  ALA25       0.2593
      4  O         46.9820   37.8810   22.0600 O.2    25  ALA25      -0.2718
      5  CB        46.7870   38.1410   25.2800 C.3    25  ALA25       0.0304
      6  N         44.9220   37.3720   22.8110 N.am   26  THR26      -0.1939
      7  CA        44.6210   36.4270   21.7450 C.3    26  THR26       0.2028
      8  C         44.1120   37.0500   20.4440 C.2    26  THR26       0.2642
      9  O         44.5580   36.6850   19.3590 O.2    26  THR26      -0.2714
     10  CB        43.5500   35.4000   22.2080 C.3    26  THR26       0.1808
     11  OG1       44.0180   34.6990   23.3680 O.3    26  THR26      -0.2208
     12  CG2       43.2630   34.4010   21.1080 C.3    26  THR26       0.0379
     13  N         43.1760   37.9840   20.5560 N.am   27  GLU27      -0.1963
     14  CA        42.5720   38.5990   19.3810 C.3    27  GLU27       0.1733
     15  C         43.0940   39.9510   18.9110 C.2    27  GLU27       0.2616
     16  O         42.9880   40.2620   17.7280 O.2    27  GLU27      -0.2715
     17  CB        41.0580   38.7280   19.6050 C.3    27  GLU27       0.0429
     18  CG        40.3200   37.4030   19.7160 C.3    27  GLU27       0.1163
     19  CD        40.3220   36.6250   18.4120 C.2    27  GLU27       0.3649
     20  OE1       40.8150   35.4730   18.4010 O.co2  27  GLU27      -0.2457
     21  OE2       39.8250   37.1710   17.3980 O.co2  27  GLU27      -0.2457
     22  N         43.6680   40.7480   19.8080 N.am   28  ASP28      -0.1957
     23  CA        44.0990   42.0970   19.4300 C.3    28  ASP28       0.1840
     24  C         45.0360   42.6740   20.4920 C.2    28  ASP28       0.2621
     25  O         44.6320   43.5060   21.3110 O.2    28  ASP28      -0.2715
     26  CB        42.8290   42.9500   19.3000 C.3    28  ASP28       0.1450
     27  CG        43.0990   44.3740   18.8530 C.2    28  ASP28       0.3671
     28  OD1       44.2720   44.7500   18.6400 O.co2  28  ASP28      -0.2456
     29  OD2       42.1100   45.1190   18.7200 O.co2  28  ASP28      -0.2456
     30  N         46.2920   42.2400   20.4640 N.am   29  ARG29      -0.1977
     31  CA        47.2730   42.6630   21.4540 C.3    29  ARG29       0.1597
     32  C         47.4490   44.1640   21.6630 C.2    29  ARG29       0.2287
     33  O         47.6980   44.6010   22.7860 O.2    29  ARG29      -0.2864
     34  CB        48.6320   42.0210   21.1440 C.3    29  ARG29       0.0334
     35  CG        49.2630   42.4720   19.8390 C.3    29  ARG29       0.0492
     36  CD        50.5530   41.7030   19.5450 C.3    29  ARG29       0.2205
     37  NE        50.2940   40.2960   19.2380 N.pl3  29  ARG29      -0.0865
     38  CZ        51.2370   39.4030   18.9380 C.cat  29  ARG29       0.5346
     39  NH1       52.5150   39.7590   18.9010 N.pl3  29  ARG29       0.1354
     40  NH2       50.9000   38.1490   18.6740 N.pl3  29  ARG29       0.1354
     41  N         52.6800   42.9860   10.3810 N.3    44  ARG44      -0.1245
     42  CA        53.2600   41.9000   11.1620 C.3    44  ARG44       0.1563
     43  C         52.6470   40.5890   10.6850 C.2    44  ARG44       0.2260
     44  O         53.3450   39.5930   10.5030 O.2    44  ARG44      -0.2867
     45  CB        52.9520   42.0930   12.6490 C.3    44  ARG44       0.0307
     46  CG        53.5470   41.0310   13.5690 C.3    44  ARG44       0.0489
     47  CD        52.5740   40.6750   14.6850 C.3    44  ARG44       0.2205
     48  NE        52.0900   41.8570   15.3960 N.pl3  44  ARG44      -0.0865
     49  CZ        50.9920   41.8830   16.1470 C.cat  44  ARG44       0.5346
     50  NH1       50.2560   40.7880   16.2890 N.pl3  44  ARG44       0.1354
     51  NH2       50.6230   43.0040   16.7510 N.pl3  44  ARG44       0.1354
     52  N         47.6790   32.3160    8.7050 N.3    50  VAL50      -0.1231
     53  CA        47.8540   31.9080   10.0950 C.3    50  VAL50       0.1692
     54  C         47.5350   33.0570   11.0500 C.2    50  VAL50       0.2592
     55  O         46.7720   32.8930   12.0040 O.2    50  VAL50      -0.2718
     56  CB        49.3020   31.4340   10.3580 C.3    50  VAL50       0.0266
     57  CG1       49.4450   30.9740   11.8010 C.3    50  VAL50       0.0020
     58  CG2       49.6620   30.3090    9.4010 C.3    50  VAL50       0.0020
     59  N         48.1230   34.2200   10.7850 N.am   51  GLN51      -0.1966
     60  CA        47.9080   35.3970   11.6180 C.3    51  GLN51       0.1733
     61  C         46.7930   36.2820   11.0780 C.2    51  GLN51       0.2616
     62  O         46.6790   36.4880    9.8700 O.2    51  GLN51      -0.2715
     63  CB        49.1980   36.2160   11.7160 C.3    51  GLN51       0.0408
     64  CG        50.3140   35.5290   12.4800 C.3    51  GLN51       0.0908
     65  CD        49.9900   35.3590   13.9500 C.2    51  GLN51       0.2608
     66  OE1       49.8340   36.3390   14.6790 O.2    51  GLN51      -0.2717
     67  NE2       49.8850   34.1100   14.3940 N.am   51  GLN51      -0.0878
     68  N         45.9680   36.7960   11.9860 N.am   52  GLY52      -0.1955
     69  CA        44.8830   37.6740   11.5940 C.3    52  GLY52       0.1869
     70  C         45.3180   39.1000   11.8630 C.2    52  GLY52       0.2309
     71  O         46.0710   39.3480   12.8080 O.2    52  GLY52      -0.2863
     72  N         38.1070   32.3230   17.3550 N.3   139  LYS139     -0.1245
     73  CA        38.7420   31.8850   16.1080 C.3   139  LYS139      0.1561
     74  C         37.7940   31.0300   15.2630 C.2   139  LYS139      0.2260
     75  O         37.6830   31.2240   14.0530 O.2   139  LYS139     -0.2867
     76  CB        40.0140   31.0860   16.4060 C.3   139  LYS139      0.0271
     77  CG        40.7420   30.6040   15.1580 C.3   139  LYS139      0.0035
     78  CD        41.8970   29.6810   15.5140 C.3   139  LYS139      0.0206
     79  CE        42.6680   29.2460   14.2810 C.3   139  LYS139      0.1093
     80  NZ        43.2790   30.4200   13.5890 N.3   139  LYS139     -0.1314
     81  N         44.1830   24.8460   22.2170 N.3   156  ARG156     -0.1245
     82  CA        44.1050   26.2650   21.9400 C.3   156  ARG156      0.1563
     83  C         44.0380   27.0760   23.2330 C.2   156  ARG156      0.2260
     84  O         44.5440   28.1960   23.2830 O.2   156  ARG156     -0.2867
     85  CB        42.9320   26.5870   21.0060 C.3   156  ARG156      0.0307
     86  CG        43.0360   28.0050   20.4470 C.3   156  ARG156      0.0489
     87  CD        42.0570   28.2960   19.3420 C.3   156  ARG156      0.2205
     88  NE        41.9140   29.7390   19.1530 N.pl3 156  ARG156     -0.0865
     89  CZ        42.8750   30.5400   18.7010 C.cat 156  ARG156      0.5346
     90  NH1       44.0590   30.0420   18.3780 N.pl3 156  ARG156      0.1354
     91  NH2       42.6590   31.8460   18.5970 N.pl3 156  ARG156      0.1354
     92  N         47.4010   27.7380   24.3250 N.3   159  LEU159     -0.1245
     93  CA        48.0340   28.6810   23.4080 C.3   159  LEU159      0.1561
     94  C         47.6490   30.0960   23.8630 C.2   159  LEU159      0.2260
     95  O         48.4650   31.0160   23.8490 O.2   159  LEU159     -0.2867
     96  CB        47.5500   28.4310   21.9770 C.3   159  LEU159      0.0270
     97  CG        48.1650   29.3340   20.9080 C.3   159  LEU159      0.0019
     98  CD1       49.6860   29.1690   20.9210 C.3   159  LEU159      0.0001
     99  CD2       47.5960   28.9700   19.5430 C.3   159  LEU159      0.0001
    100  N         50.0150   33.1850   25.1380 N.3   163  ARG163     -0.1245
    101  CA        49.9240   34.5640   24.6560 C.3   163  ARG163      0.1563
    102  C         49.8300   35.5220   25.8460 C.2   163  ARG163      0.2260
    103  O         50.4530   36.5820   25.8520 O.2   163  ARG163     -0.2867
    104  CB        48.7060   34.7310   23.7380 C.3   163  ARG163      0.0307
    105  CG        48.8990   34.1430   22.3360 C.3   163  ARG163      0.0489
    106  CD        49.9880   34.9040   21.5710 C.3   163  ARG163      0.2205
    107  NE        49.6470   36.3170   21.4530 N.pl3 163  ARG163     -0.0865
    108  CZ        50.4550   37.3260   21.7730 C.cat 163  ARG163      0.5346
    109  NH1       50.0340   38.5770   21.6280 N.pl3 163  ARG163      0.1354
    110  NH2       51.6760   37.0910   22.2380 N.pl3 163  ARG163      0.1354
@<TRIPOS>BOND
     1    52    53    1
     2    58    56    1
     3    62    61    2
     4    53    56    1
     5    53    54    1
     6    56    57    1
     7    41    42    1
     8    44    43    2
     9    43    42    1
    10    59    54   am
    11    59    60    1
    12    54    55    2
    13    61    60    1
    14    61    68   am
    15    42    45    1
    16    69    70    1
    17    69    68    1
    18    60    63    1
    19    63    64    1
    20    70    71    2
    21    64    65    1
    22    45    46    1
    23    46    47    1
    24    80    79    1
    25    65    67   am
    26    65    66    2
    27    75    74    2
    28    79    78    1
    29    47    48    1
    30    77    78    1
    31    77    76    1
    32    74    73    1
    33    48    49    2
    34    73    76    1
    35    73    72    1
    36    49    50    1
    37    49    51    1
    38    21    19   ar
    39    16    15    2
    40    90    89    1
    41    20    19   ar
    42    19    18    1
    43    91    89    1
    44    28    27   ar
    45    40    38    1
    46    89    88    2
    47    29    27   ar
    48    27    26    1
    49    39    38    1
    50    15    14    1
    51    15    22   am
    52    38    37    2
    53    88    87    1
    54    37    36    1
    55    26    23    1
    56    87    86    1
    57     9     8    2
    58    14    17    1
    59    14    13    1
    60    23    22    1
    61    23    24    1
    62    99    97    1
    63    36    35    1
    64    17    18    1
    65    35    34    1
    66     8    13   am
    67     8     7    1
    68    86    85    1
    69    30    24   am
    70    30    31    1
    71    24    25    2
    72    97    98    1
    73    97    96    1
    74    85    82    1
    75    12    10    1
    76    34    31    1
    77   107   106    1
    78   107   108    2
    79    31    32    1
    80   106   105    1
    81   109   108    1
    82    32    33    2
    83     7    10    1
    84     7     6    1
    85   108   110    1
    86    82    81    1
    87    82    83    1
    88    96    93    1
    89     4     3    2
    90    10    11    1
    91   105   104    1
    92     6     3   am
    93     3     2    1
    94    83    84    2
    95    93    94    1
    96    93    92    1
    97   104   101    1
    98    95    94    2
    99     2     1    1
   100     2     5    1
   101   101   100    1
   102   101   102    1
   103   102   103    2
