@<TRIPOS>MOLECULE
tmp/2oqoA01.pdb
 150 138 0 0 0
SMALL
GASTEIGER

@<TRIPOS>ATOM
      1  N         43.5510   52.8020   16.6990 N.3    35  PHE35      -0.1241
      2  CA        42.3830   53.6540   16.4850 C.3    35  PHE35       0.1605
      3  C         41.2490   52.9730   15.7260 C.2    35  PHE35       0.2264
      4  O         40.4910   53.6350   15.0180 O.2    35  PHE35      -0.2867
      5  CB        42.8010   54.9190   15.7250 C.3    35  PHE35       0.0534
      6  CG        43.4900   54.6350   14.4220 C.ar   35  PHE35      -0.0203
      7  CD1       44.8200   54.2200   14.3990 C.ar   35  PHE35      -0.0042
      8  CD2       42.7980   54.7360   13.2190 C.ar   35  PHE35      -0.0042
      9  CE1       45.4530   53.9060   13.1920 C.ar   35  PHE35      -0.0003
     10  CE2       43.4170   54.4240   12.0050 C.ar   35  PHE35      -0.0003
     11  CZ        44.7480   54.0080   11.9910 C.ar   35  PHE35      -0.0000
     12  N         41.7770   50.2140   13.6550 N.3    37  ILE37      -0.1245
     13  CA        42.4830   49.2990   12.7620 C.3    37  ILE37       0.1561
     14  C         43.9450   49.3680   13.1870 C.2    37  ILE37       0.2260
     15  O         44.4010   50.3950   13.6870 O.2    37  ILE37      -0.2867
     16  CB        42.3650   49.7060   11.2730 C.3    37  ILE37       0.0252
     17  CG1       42.9670   51.0920   11.0640 C.3    37  ILE37       0.0019
     18  CG2       40.9070   49.6660   10.8330 C.3    37  ILE37       0.0019
     19  CD1       42.9750   51.5370    9.6190 C.3    37  ILE37       0.0001
     20  N         48.7170   44.5460   10.7320 N.3    42  ILE42      -0.1245
     21  CA        48.4160   44.0460    9.3960 C.3    42  ILE42       0.1561
     22  C         49.7140   43.6890    8.6740 C.2    42  ILE42       0.2260
     23  O         49.7550   42.7550    7.8700 O.2    42  ILE42      -0.2867
     24  CB        47.6390   45.0960    8.5670 C.3    42  ILE42       0.0252
     25  CG1       46.3140   45.4260    9.2610 C.3    42  ILE42       0.0019
     26  CG2       47.3690   44.5600    7.1690 C.3    42  ILE42       0.0019
     27  CD1       45.5110   46.5140    8.5790 C.3    42  ILE42       0.0001
     28  N         51.3340   40.6030   10.4810 N.3    45  ALA45      -0.1245
     29  CA        50.6090   39.4240   10.0260 C.3    45  ALA45       0.1562
     30  C         50.9420   39.1150    8.5720 C.2    45  ALA45       0.2260
     31  O         51.0550   37.9520    8.1850 O.2    45  ALA45      -0.2867
     32  CB        49.1080   39.6420   10.1820 C.3    45  ALA45       0.0290
     33  N         48.1230   34.2200   10.7850 N.3    51  GLN51      -0.1231
     34  CA        47.9080   35.3970   11.6180 C.3    51  GLN51       0.1698
     35  C         46.7930   36.2820   11.0780 C.2    51  GLN51       0.2593
     36  O         46.6790   36.4880    9.8700 O.2    51  GLN51      -0.2718
     37  CB        49.1980   36.2160   11.7160 C.3    51  GLN51       0.0381
     38  CG        50.3140   35.5290   12.4800 C.3    51  GLN51       0.0905
     39  CD        49.9900   35.3590   13.9500 C.2    51  GLN51       0.2608
     40  OE1       49.8340   36.3390   14.6790 O.2    51  GLN51      -0.2717
     41  NE2       49.8850   34.1100   14.3940 N.am   51  GLN51      -0.0878
     42  N         45.9680   36.7960   11.9860 N.am   52  GLY52      -0.1942
     43  CA        44.8830   37.6740   11.5940 C.3    52  GLY52       0.2014
     44  C         45.3180   39.1000   11.8630 C.2    52  GLY52       0.2639
     45  O         46.0710   39.3480   12.8080 O.2    52  GLY52      -0.2714
     46  N         44.8580   40.0410   11.0430 N.am   53  GLY53      -0.1939
     47  CA        45.2460   41.4250   11.2420 C.3    53  GLY53       0.2014
     48  C         44.1270   42.3260   11.7280 C.2    53  GLY53       0.2639
     49  O         44.3440   43.5190   11.9490 O.2    53  GLY53      -0.2714
     50  N         42.9340   41.7620   11.9010 N.am   54  SER54      -0.1949
     51  CA        41.7850   42.5390   12.3540 C.3    54  SER54       0.1924
     52  C         41.8190   42.8250   13.8540 C.2    54  SER54       0.2314
     53  O         42.4270   42.0870   14.6280 O.2    54  SER54      -0.2863
     54  CB        40.4850   41.8150   12.0020 C.3    54  SER54       0.2116
     55  OG        40.3970   40.5800   12.6860 O.3    54  SER54      -0.2180
     56  N         37.0620   45.9210   14.8850 N.3    58  GLN58      -0.1231
     57  CA        36.6330   45.4310   13.5800 C.3    58  GLN58       0.1698
     58  C         35.7170   44.2140   13.7010 C.2    58  GLN58       0.2592
     59  O         34.7940   44.0510   12.9040 O.2    58  GLN58      -0.2718
     60  CB        37.8510   45.0720   12.7170 C.3    58  GLN58       0.0381
     61  CG        38.4970   46.2660   12.0180 C.3    58  GLN58       0.0905
     62  CD        39.8110   45.9050   11.3500 C.2    58  GLN58       0.2608
     63  OE1       40.8500   45.8090   12.0050 O.2    58  GLN58      -0.2717
     64  NE2       39.7690   45.6880   10.0370 N.am   58  GLN58      -0.0878
     65  N         35.9730   43.3520   14.6860 N.am   59  GLN59      -0.1979
     66  CA        35.1400   42.1570   14.8780 C.3    59  GLN59       0.1601
     67  C         33.7520   42.5960   15.3380 C.2    59  GLN59       0.2287
     68  O         32.7440   41.9840   14.9910 O.2    59  GLN59      -0.2864
     69  CB        35.7620   41.2210   15.9260 C.3    59  GLN59       0.0394
     70  CG        37.1650   40.7360   15.5860 C.3    59  GLN59       0.0908
     71  CD        37.2010   39.7860   14.3990 C.2    59  GLN59       0.2608
     72  OE1       38.2770   39.4490   13.8930 O.2    59  GLN59      -0.2717
     73  NE2       36.0320   39.3410   13.9530 N.am   59  GLN59      -0.0878
     74  N         31.9070   44.0590   12.3540 N.3    62  LYS62      -0.1245
     75  CA        31.4990   42.9560   11.4940 C.3    62  LYS62       0.1561
     76  C         30.1320   42.3820   11.8570 C.2    62  LYS62       0.2260
     77  O         29.3670   41.9820   10.9790 O.2    62  LYS62      -0.2867
     78  CB        32.5360   41.8360   11.5610 C.3    62  LYS62       0.0271
     79  CG        32.1520   40.5930   10.7740 C.3    62  LYS62       0.0035
     80  CD        33.0300   39.4040   11.1410 C.3    62  LYS62       0.0206
     81  CE        34.5050   39.7410   11.0180 C.3    62  LYS62       0.1093
     82  NZ        35.3700   38.5960   11.4250 N.3    62  LYS62      -0.1314
     83  N         31.7960   38.4290    2.8310 N.3    70  ARG70      -0.1245
     84  CA        33.2160   38.6570    3.0580 C.3    70  ARG70       0.1563
     85  C         33.9110   39.2810    1.8540 C.2    70  ARG70       0.2260
     86  O         35.0720   38.9880    1.5700 O.2    70  ARG70      -0.2867
     87  CB        33.9120   37.3500    3.4580 C.3    70  ARG70       0.0307
     88  CG        33.3170   36.6760    4.6990 C.3    70  ARG70       0.0489
     89  CD        32.9990   37.6870    5.8020 C.3    70  ARG70       0.2205
     90  NE        34.1840   38.3860    6.2950 N.pl3  70  ARG70      -0.0865
     91  CZ        34.1480   39.5500    6.9380 C.cat  70  ARG70       0.5346
     92  NH1       35.2720   40.1170    7.3580 N.pl3  70  ARG70       0.1354
     93  NH2       32.9870   40.1580    7.1480 N.pl3  70  ARG70       0.1354
     94  N         35.6630   42.2860   -0.3110 N.3    72  LEU72      -0.1245
     95  CA        36.6240   43.2990    0.1020 C.3    72  LEU72       0.1561
     96  C         35.8980   44.5960    0.4380 C.2    72  LEU72       0.2260
     97  O         36.3380   45.3650    1.2930 O.2    72  LEU72      -0.2867
     98  CB        37.6560   43.5370   -1.0030 C.3    72  LEU72       0.0270
     99  CG        38.8540   44.4090   -0.6160 C.3    72  LEU72       0.0019
    100  CD1       40.0410   44.0680   -1.5010 C.3    72  LEU72       0.0001
    101  CD2       38.4890   45.8790   -0.7280 C.3    72  LEU72       0.0001
    102  N         34.7490   44.4100    3.9150 N.3    75  LYS75      -0.1231
    103  CA        35.9050   44.5640    4.7910 C.3    75  LYS75       0.1693
    104  C         36.2110   46.0370    5.0280 C.2    75  LYS75       0.2591
    105  O         36.5630   46.4370    6.1400 O.2    75  LYS75      -0.2718
    106  CB        37.1400   43.8910    4.1870 C.3    75  LYS75       0.0285
    107  CG        37.2670   42.3990    4.4620 C.3    75  LYS75       0.0035
    108  CD        36.1440   41.5970    3.8270 C.3    75  LYS75       0.0206
    109  CE        36.3860   40.1020    3.9750 C.3    75  LYS75       0.1093
    110  NZ        37.6400   39.6710    3.2880 N.3    75  LYS75      -0.1314
    111  N         36.0830   46.8400    3.9740 N.am   76  ILE76      -0.1980
    112  CA        36.3440   48.2690    4.0720 C.3    76  ILE76       0.1595
    113  C         35.2580   48.9620    4.8860 C.2    76  ILE76       0.2287
    114  O         35.5520   49.8190    5.7200 O.2    76  ILE76      -0.2864
    115  CB        36.4380   48.9120    2.6670 C.3    76  ILE76       0.0276
    116  CG1       37.7360   48.4640    1.9900 C.3    76  ILE76       0.0022
    117  CG2       36.3920   50.4300    2.7680 C.3    76  ILE76       0.0022
    118  CD1       37.8980   48.9710    0.5700 C.3    76  ILE76       0.0001
    119  N         35.8320   48.3150    8.5170 N.3    79  ALA79      -0.1231
    120  CA        36.9500   49.1020    9.0360 C.3    79  ALA79       0.1694
    121  C         36.5710   50.5710    9.2680 C.2    79  ALA79       0.2591
    122  O         36.9770   51.1750   10.2660 O.2    79  ALA79      -0.2718
    123  CB        38.1400   49.0070    8.0820 C.3    79  ALA79       0.0304
    124  N         35.8000   51.1450    8.3480 N.am   80  LEU80      -0.1980
    125  CA        35.3710   52.5390    8.4720 C.3    80  LEU80       0.1596
    126  C         34.4330   52.6740    9.6660 C.2    80  LEU80       0.2287
    127  O         34.4680   53.6720   10.3930 O.2    80  LEU80      -0.2864
    128  CB        34.6610   53.0010    7.1920 C.3    80  LEU80       0.0297
    129  CG        35.5230   53.0440    5.9200 C.3    80  LEU80       0.0022
    130  CD1       34.6730   53.4570    4.7200 C.3    80  LEU80       0.0001
    131  CD2       36.6660   54.0230    6.1190 C.3    80  LEU80       0.0001
    132  N         36.4830   52.5610   12.8210 N.3    83  ILE83      -0.1245
    133  CA        37.1300   53.8490   13.0140 C.3    83  ILE83       0.1561
    134  C         36.1760   54.8710   13.6240 C.2    83  ILE83       0.2260
    135  O         36.5510   55.6000   14.5360 O.2    83  ILE83      -0.2867
    136  CB        37.6850   54.3840   11.6790 C.3    83  ILE83       0.0252
    137  CG1       38.8780   53.5240   11.2570 C.3    83  ILE83       0.0019
    138  CG2       38.0800   55.8530   11.8150 C.3    83  ILE83       0.0019
    139  CD1       39.3050   53.7240    9.8290 C.3    83  ILE83       0.0001
    140  N         35.9890   56.7620   17.5220 N.3    87  ARG87      -0.1245
    141  CA        35.9370   58.2030   17.7740 C.3    87  ARG87       0.1563
    142  C         34.7350   58.5480   18.6510 C.2    87  ARG87       0.2260
    143  O         34.6760   59.6230   19.2360 O.2    87  ARG87      -0.2867
    144  CB        35.8080   58.9820   16.4620 C.3    87  ARG87       0.0307
    145  CG        36.9430   58.7850   15.4850 C.3    87  ARG87       0.0489
    146  CD        36.7080   59.6170   14.2400 C.3    87  ARG87       0.2205
    147  NE        37.7430   59.4050   13.2360 N.pl3  87  ARG87      -0.0865
    148  CZ        37.7760   60.0140   12.0550 C.cat  87  ARG87       0.5346
    149  NH1       36.8260   60.8790   11.7260 N.pl3  87  ARG87       0.1354
    150  NH2       38.7580   59.7530   11.2020 N.pl3  87  ARG87       0.1354
@<TRIPOS>BOND
     1   100    99    1
     2    98    99    1
     3    98    95    1
     4   101    99    1
     5    94    95    1
     6    95    96    1
     7    96    97    2
     8   118   116    1
     9    86    85    2
    10    85    84    1
    11   116   115    1
    12   115   117    1
    13   115   112    1
    14    83    84    1
    15    84    87    1
    16   110   109    1
    17    87    88    1
    18   108   109    1
    19   108   107    1
    20   102   103    1
    21   111   112    1
    22   111   104   am
    23   112   113    1
    24   106   107    1
    25   106   103    1
    26    88    89    1
    27   130   129    1
    28   103   104    1
    29   113   114    2
    30   104   105    2
    31    89    90    1
    32   129   131    1
    33   129   128    1
    34    90    91    2
    35    91    93    1
    36    91    92    1
    37    26    24    1
    38   128   125    1
    39    23    22    2
    40   123   120    1
    41    31    30    2
    42   124   125    1
    43   124   121   am
    44   125   126    1
    45   119   120    1
    46    24    25    1
    47    24    21    1
    48    30    29    1
    49    27    25    1
    50    22    21    1
    51   120   121    1
    52   121   122    2
    53    21    20    1
    54    19    17    1
    55   126   127    2
    56   139   137    1
    57    36    35    2
    58    29    32    1
    59    29    28    1
    60    64    62   am
    61    79    80    1
    62    79    78    1
    63    33    34    1
    64    18    16    1
    65    77    76    2
    66    81    80    1
    67    81    82    1
    68    46    47    1
    69    46    44   am
    70    17    16    1
    71    35    34    1
    72    35    42   am
    73   150   148    1
    74    47    48    1
    75   137   136    1
    76    16    13    1
    77    62    63    2
    78    62    61    1
    79    75    78    1
    80    75    76    1
    81    75    74    1
    82    43    44    1
    83    43    42    1
    84    34    37    1
    85   136   138    1
    86   136   133    1
    87    37    38    1
    88   149   148    1
    89    48    50   am
    90    48    49    2
    91    44    45    2
    92    50    51    1
    93    11    10   ar
    94    11     9   ar
    95    54    51    1
    96    54    55    1
    97    10     8   ar
    98    61    60    1
    99   148   147    2
   100    51    52    1
   101    38    39    1
   102    60    57    1
   103    13    14    1
   104    13    12    1
   105   132   133    1
   106    59    58    2
   107   133   134    1
   108    14    15    2
   109     9     7   ar
   110     8     6   ar
   111   147   146    1
   112    57    58    1
   113    57    56    1
   114   134   135    2
   115    58    65   am
   116    52    53    2
   117    72    71    2
   118    39    41   am
   119    39    40    2
   120    73    71   am
   121   146   145    1
   122     7     6   ar
   123    71    70    1
   124     6     5    1
   125    65    66    1
   126    66    67    1
   127    66    69    1
   128    68    67    2
   129     4     3    2
   130   145   144    1
   131    70    69    1
   132     5     2    1
   133     3     2    1
   134   144   141    1
   135     2     1    1
   136   140   141    1
   137   141   142    1
   138   142   143    2
