@<TRIPOS>MOLECULE
tmp/2oqsA00.pdb
 151 147 0 0 0
SMALL
GASTEIGER

@<TRIPOS>ATOM
      1  N          8.1990   12.0540    2.8380 N.3    11  GLY11      -0.1210
      2  CA         8.1500   10.6510    2.4590 C.3    11  GLY11       0.1956
      3  C          6.7320   10.1420    2.2820 C.2    11  GLY11       0.2612
      4  O          5.8710   10.8540    1.7570 O.2    11  GLY11      -0.2717
      5  N          6.4870    8.9090    2.7230 N.am   12  LEU12      -0.1965
      6  CA         5.1610    8.3020    2.6170 C.3    12  LEU12       0.1728
      7  C          4.2790    8.7420    3.7850 C.2    12  LEU12       0.2617
      8  O          3.1700    9.2310    3.5790 O.2    12  LEU12      -0.2715
      9  CB         5.2780    6.7770    2.5700 C.3    12  LEU12       0.0311
     10  CG         5.7720    6.2110    1.2340 C.3    12  LEU12       0.0022
     11  CD1        7.2920    6.1580    1.2040 C.3    12  LEU12       0.0001
     12  CD2        5.1850    4.8300    0.9870 C.3    12  LEU12       0.0001
     13  N          4.7850    8.5760    5.0080 N.am   13  GLY13      -0.1940
     14  CA         4.0410    8.9800    6.1900 C.3    13  GLY13       0.2014
     15  C          3.0620    7.9340    6.6960 C.2    13  GLY13       0.2639
     16  O          2.0200    8.2860    7.2450 O.2    13  GLY13      -0.2714
     17  N          3.3890    6.6540    6.5190 N.am   14  PHE14      -0.1959
     18  CA         2.5220    5.5660    6.9790 C.3    14  PHE14       0.1771
     19  C          3.3070    4.2550    7.0850 C.2    14  PHE14       0.2620
     20  O          4.5220    4.2380    6.8920 O.2    14  PHE14      -0.2715
     21  CB         1.3020    5.4060    6.0600 C.3    14  PHE14       0.0574
     22  CG         1.6350    5.1180    4.6240 C.ar   14  PHE14      -0.0200
     23  CD1        2.0030    3.8430    4.2230 C.ar   14  PHE14      -0.0042
     24  CD2        1.5670    6.1220    3.6750 C.ar   14  PHE14      -0.0042
     25  CE1        2.2990    3.5780    2.9020 C.ar   14  PHE14      -0.0003
     26  CE2        1.8610    5.8640    2.3510 C.ar   14  PHE14      -0.0003
     27  CZ         2.2280    4.5900    1.9630 C.ar   14  PHE14      -0.0000
     28  N          2.6120    3.1600    7.3890 N.am   15  SER15      -0.1936
     29  CA         3.2370    1.8570    7.5150 C.3    15  SER15       0.2055
     30  C          2.4710    0.8250    6.6880 C.2    15  SER15       0.2643
     31  O          1.4000    1.1200    6.1540 O.2    15  SER15      -0.2714
     32  CB         3.2640    1.4360    8.9810 C.3    15  SER15       0.2130
     33  OG         1.9760    1.4960    9.5480 O.3    15  SER15      -0.2179
     34  N          3.0160   -0.3840    6.5930 N.am   16  ILE16      -0.1963
     35  CA         2.3760   -1.4600    5.8350 C.3    16  ILE16       0.1727
     36  C          2.8120   -2.8290    6.3540 C.2    16  ILE16       0.2616
     37  O          3.7590   -2.9370    7.1310 O.2    16  ILE16      -0.2715
     38  CB         2.7120   -1.3940    4.3170 C.3    16  ILE16       0.0290
     39  CG1        4.0810   -2.0230    4.0110 C.3    16  ILE16       0.0022
     40  CG2        2.6460    0.0360    3.7910 C.3    16  ILE16       0.0023
     41  CD1        5.2540   -1.1350    4.3370 C.3    16  ILE16       0.0001
     42  N          2.1270   -3.8620    5.8800 N.am   17  ALA17      -0.1977
     43  CA         2.4270   -5.2500    6.2220 C.3    17  ALA17       0.1597
     44  C          2.3530   -6.0700    4.9330 C.2    17  ALA17       0.2287
     45  O          1.7940   -5.5900    3.9510 O.2    17  ALA17      -0.2864
     46  CB         1.4680   -5.7610    7.2840 C.3    17  ALA17       0.0319
     47  N          4.4430  -15.0240    7.0400 N.3    21  GLY21      -0.1210
     48  CA         5.2190  -14.8180    8.2610 C.3    21  GLY21       0.1956
     49  C          5.1230  -13.3900    8.7900 C.2    21  GLY21       0.2612
     50  O          5.3830  -13.1390    9.9670 O.2    21  GLY21      -0.2717
     51  N          4.7360  -12.4620    7.9130 N.am   22  ASN22      -0.1960
     52  CA         4.5780  -11.0510    8.2630 C.3    22  ASN22       0.1819
     53  C          3.2450  -10.5040    7.7230 C.2    22  ASN22       0.2621
     54  O          3.0730   -9.2890    7.5960 O.2    22  ASN22      -0.2715
     55  CB         5.7500  -10.2180    7.7040 C.3    22  ASN22       0.1195
     56  CG         6.3410  -10.7950    6.4280 C.2    22  ASN22       0.2630
     57  OD1        5.6270  -11.0780    5.4720 O.2    22  ASN22      -0.2716
     58  ND2        7.6590  -10.9740    6.4140 N.am   22  ASN22      -0.0877
     59  N          2.3140  -11.4100    7.3780 N.am   23  GLN23      -0.1963
     60  CA         1.0090  -11.0350    6.8190 C.3    23  GLN23       0.1733
     61  C          0.2340  -10.0600    7.7020 C.2    23  GLN23       0.2616
     62  O          0.2680  -10.1490    8.9300 O.2    23  GLN23      -0.2715
     63  CB         0.1480  -12.2860    6.6140 C.3    23  GLN23       0.0408
     64  CG         0.5810  -13.1620    5.4500 C.3    23  GLN23       0.0908
     65  CD        -0.3690  -14.3220    5.2110 C.2    23  GLN23       0.2608
     66  OE1       -0.0080  -15.4820    5.4060 O.2    23  GLN23      -0.2717
     67  NE2       -1.5920  -14.0150    4.7890 N.am   23  GLN23      -0.0878
     68  N         -0.4830   -9.1440    7.0500 N.am   24  HIS24      -0.1973
     69  CA        -1.3030   -8.1500    7.7460 C.3    24  HIS24       0.1656
     70  C         -2.7190   -8.6750    7.9780 C.2    24  HIS24       0.2291
     71  O         -3.3840   -8.2880    8.9410 O.2    24  HIS24      -0.2864
     72  CB        -1.4000   -6.8640    6.9240 C.3    24  HIS24       0.0771
     73  CG        -2.0710   -5.7520    7.6480 C.ar   24  HIS24       0.0820
     74  ND1       -1.4410   -4.9870    8.5970 N.ar   24  HIS24      -0.2267
     75  CD2       -3.3300   -5.2760    7.5500 C.ar   24  HIS24       0.1154
     76  CE1       -2.2800   -4.0840    9.0530 C.ar   24  HIS24       0.1986
     77  NE2       -3.4380   -4.2340    8.4350 N.ar   24  HIS24      -0.2212
     78  N         -5.0740  -12.4490    7.7420 N.3    26  PRO26      -0.2116
     79  CA        -5.1080  -13.9050    7.5570 C.3    26  PRO26       0.1372
     80  C         -5.7550  -14.3050    6.2330 C.2    26  PRO26       0.2244
     81  O         -6.8860  -13.9110    5.9390 O.2    26  PRO26      -0.2868
     82  CB        -5.9410  -14.4120    8.7420 C.3    26  PRO26       0.0268
     83  CG        -6.6530  -13.2110    9.2680 C.3    26  PRO26       0.0207
     84  CD        -5.7580  -12.0410    8.9790 C.3    26  PRO26       0.0892
     85  N         -0.8940   -0.4560    7.9980 N.3    34  THR34      -0.1203
     86  CA        -1.1490   -0.7220    9.4170 C.3    34  THR34       0.1994
     87  C         -1.2480    0.5500   10.2690 C.2    34  THR34       0.2617
     88  O         -1.8750    0.5340   11.3290 O.2    34  THR34      -0.2717
     89  CB        -0.0530   -1.6430    9.9830 C.3    34  THR34       0.1784
     90  OG1        1.0140   -0.8880   10.5340 O.3    34  THR34      -0.2211
     91  CG2        0.5430   -2.5830    8.9540 C.3    34  THR34       0.0376
     92  N         -0.6070    1.6370    9.8320 N.am   35  LYS35      -0.1979
     93  CA        -0.6160    2.8840   10.6020 C.3    35  LYS35       0.1596
     94  C         -0.2400    4.0840    9.7340 C.2    35  LYS35       0.2287
     95  O          0.8580    4.1320    9.1790 O.2    35  LYS35      -0.2864
     96  CB         0.3790    2.7650   11.7650 C.3    35  LYS35       0.0298
     97  CG         0.0770    3.6630   12.9530 C.3    35  LYS35       0.0038
     98  CD         0.1120    5.1360   12.5770 C.3    35  LYS35       0.0206
     99  CE         0.2640    6.0210   13.8060 C.3    35  LYS35       0.1093
    100  NZ         1.1060    7.2180   13.5320 N.3    35  LYS35      -0.1314
    101  N          0.6540    8.0380    9.4630 N.3    37  ILE37      -0.1245
    102  CA         1.1440    9.1820   10.2320 C.3    37  ILE37       0.1561
    103  C          0.4560   10.4730    9.7790 C.2    37  ILE37       0.2260
    104  O          0.1030   10.6190    8.6060 O.2    37  ILE37      -0.2867
    105  CB         2.6790    9.3320   10.0840 C.3    37  ILE37       0.0252
    106  CG1        3.4060    8.2080   10.8280 C.3    37  ILE37       0.0019
    107  CG2        3.1480   10.6860   10.5930 C.3    37  ILE37       0.0019
    108  CD1        3.5190    6.9250   10.0350 C.3    37  ILE37       0.0001
    109  N          7.4110   -9.2040    2.9720 N.3    67  HIS67      -0.1226
    110  CA         7.3140   -7.8690    3.5540 C.3    67  HIS67       0.1752
    111  C          8.3800   -6.9580    2.9590 C.2    67  HIS67       0.2595
    112  O          8.1180   -5.7880    2.6810 O.2    67  HIS67      -0.2718
    113  CB         7.3980   -7.8950    5.0820 C.3    67  HIS67       0.0759
    114  CG         7.0600   -6.5700    5.6900 C.ar   67  HIS67       0.0818
    115  ND1        5.8150   -6.2850    6.1970 N.ar   67  HIS67      -0.2268
    116  CD2        7.7830   -5.4290    5.8150 C.ar   67  HIS67       0.1154
    117  CE1        5.7830   -5.0320    6.6010 C.ar   67  HIS67       0.1986
    118  NE2        6.9630   -4.4890    6.3840 N.ar   67  HIS67      -0.2212
    119  N          9.5800   -7.5060    2.7610 N.am   68  GLU68      -0.1979
    120  CA        10.6900   -6.7470    2.1860 C.3    68  GLU68       0.1602
    121  C         10.2520   -6.0670    0.8900 C.2    68  GLU68       0.2287
    122  O         10.5170   -4.8850    0.6840 O.2    68  GLU68      -0.2864
    123  CB        11.8870   -7.6660    1.9160 C.3    68  GLU68       0.0415
    124  CG        12.3820   -8.4130    3.1480 C.3    68  GLU68       0.1163
    125  CD        11.8190   -9.8200    3.2450 C.2    68  GLU68       0.3649
    126  OE1       12.3850  -10.7320    2.6060 O.co2  68  GLU68      -0.2457
    127  OE2       10.8110  -10.0080    3.9580 O.co2  68  GLU68      -0.2457
    128  N          7.8360   -3.1210    1.4710 N.3    71  VAL71      -0.1245
    129  CA         8.5320   -1.8990    1.8670 C.3    71  VAL71       0.1561
    130  C          9.4310   -1.3810    0.7440 C.2    71  VAL71       0.2260
    131  O          9.5480   -0.1720    0.5460 O.2    71  VAL71      -0.2867
    132  CB         9.3770   -2.1210    3.1440 C.3    71  VAL71       0.0252
    133  CG1       10.3270   -0.9550    3.3870 C.3    71  VAL71       0.0019
    134  CG2        8.4750   -2.3380    4.3480 C.3    71  VAL71       0.0019
    135  N          7.1930    0.3580   -1.7470 N.3    74  LEU74      -0.1231
    136  CA         6.6570    1.5900   -1.1780 C.3    74  LEU74       0.1693
    137  C          7.7570    2.6430   -1.1030 C.2    74  LEU74       0.2591
    138  O          7.4960    3.8410   -1.2250 O.2    74  LEU74      -0.2718
    139  CB         6.0990    1.3350    0.2250 C.3    74  LEU74       0.0284
    140  CG         4.6760    0.7770    0.2860 C.3    74  LEU74       0.0019
    141  CD1        3.6560    1.9050    0.2810 C.3    74  LEU74       0.0001
    142  CD2        4.4130   -0.1840   -0.8650 C.3    74  LEU74       0.0001
    143  N          8.9910    2.1750   -0.9050 N.am   75  LYS75      -0.1980
    144  CA        10.1490    3.0690   -0.8150 C.3    75  LYS75       0.1596
    145  C         10.7300    3.3950   -2.1990 C.2    75  LYS75       0.2287
    146  O         11.4860    4.3590   -2.3410 O.2    75  LYS75      -0.2864
    147  CB        11.2340    2.4620    0.0860 C.3    75  LYS75       0.0298
    148  CG        12.0360    1.3440   -0.5670 C.3    75  LYS75       0.0038
    149  CD        13.4750    1.3190   -0.0710 C.3    75  LYS75       0.0206
    150  CE        13.5910    0.6420    1.2870 C.3    75  LYS75       0.1093
    151  NZ        14.6960    1.2190    2.1040 N.3    75  LYS75      -0.1314
@<TRIPOS>BOND
     1   146   145    2
     2   145   144    1
     3   135   136    1
     4   138   137    2
     5   136   137    1
     6   136   139    1
     7   137   143   am
     8   143   144    1
     9   142   140    1
    10   144   147    1
    11   148   149    1
    12   148   147    1
    13   149   150    1
    14   139   140    1
    15   141   140    1
    16   131   130    2
    17   122   121    2
    18   130   129    1
    19   121   120    1
    20    12    10    1
    21    11    10    1
    22    10     9    1
    23   150   151    1
    24   128   129    1
    25     4     3    2
    26   129   132    1
    27   123   120    1
    28   123   124    1
    29    27    26   ar
    30    27    25   ar
    31   120   119    1
    32     3     2    1
    33     3     5   am
    34    26    24   ar
    35     2     1    1
    36     9     6    1
    37   126   125   ar
    38     6     5    1
    39     6     7    1
    40   112   111    2
    41   119   111   am
    42    25    23   ar
    43   111   110    1
    44   109   110    1
    45   132   133    1
    46   132   134    1
    47   124   125    1
    48   125   127   ar
    49   110   113    1
    50     8     7    2
    51    24    22   ar
    52     7    13   am
    53    40    38    1
    54    45    44    2
    55    39    38    1
    56    39    41    1
    57    23    22   ar
    58    38    35    1
    59    22    21    1
    60    67    65   am
    61    44    43    1
    62    13    14    1
    63   113   114    1
    64    65    66    2
    65    65    64    1
    66    64    63    1
    67    57    56    2
    68   114   116   ar
    69   114   115   ar
    70   116   118   ar
    71    35    36    1
    72    35    34    1
    73    42    43    1
    74    42    36   am
    75    81    80    2
    76    21    18    1
    77    31    30    2
    78    14    15    1
    79   115   117   ar
    80    43    46    1
    81    80    79    1
    82    36    37    2
    83   118   117   ar
    84    58    56   am
    85    56    55    1
    86    17    15   am
    87    17    18    1
    88    34    30   am
    89    63    60    1
    90    30    29    1
    91    15    16    2
    92    60    59    1
    93    60    61    1
    94    20    19    2
    95    72    73    1
    96    72    69    1
    97    18    19    1
    98    47    48    1
    99    68    61   am
   100    68    69    1
   101    19    28   am
   102    59    53   am
   103    28    29    1
   104    29    32    1
   105    75    73   ar
   106    75    77   ar
   107    79    78    1
   108    79    82    1
   109    54    53    2
   110    73    74   ar
   111    61    62    2
   112    55    52    1
   113    53    52    1
   114    78    84    1
   115    69    70    1
   116    51    52    1
   117    51    49   am
   118    70    71    2
   119    85    86    1
   120    48    49    1
   121    77    76   ar
   122    74    76   ar
   123   104   103    2
   124    82    83    1
   125    49    50    2
   126    91    89    1
   127    84    83    1
   128    32    33    1
   129    95    94    2
   130    86    89    1
   131    86    87    1
   132   101   102    1
   133    94    93    1
   134   103   102    1
   135    92    87   am
   136    92    93    1
   137    89    90    1
   138   108   106    1
   139   105   102    1
   140   105   107    1
   141   105   106    1
   142    87    88    2
   143    93    96    1
   144    96    97    1
   145    98    97    1
   146    98    99    1
   147   100    99    1
