@<TRIPOS>MOLECULE
tmp/2oqxA00.pdb
 104 97 0 0 0
SMALL
GASTEIGER

@<TRIPOS>ATOM
      1  N         14.8990   48.7460   63.4560 N.3    35  PHE35      -0.1241
      2  CA        15.3200   47.3720   63.7120 C.3    35  PHE35       0.1605
      3  C         14.2570   46.3710   63.2730 C.2    35  PHE35       0.2264
      4  O         14.5650   45.2100   62.9950 O.2    35  PHE35      -0.2867
      5  CB        15.6050   47.1570   65.2030 C.3    35  PHE35       0.0534
      6  CG        17.0100   47.5030   65.6150 C.ar   35  PHE35      -0.0203
      7  CD1       17.2500   48.5330   66.5170 C.ar   35  PHE35      -0.0042
      8  CD2       18.0910   46.7730   65.1220 C.ar   35  PHE35      -0.0042
      9  CE1       18.5490   48.8370   66.9320 C.ar   35  PHE35      -0.0003
     10  CE2       19.3950   47.0650   65.5270 C.ar   35  PHE35      -0.0003
     11  CZ        19.6240   48.0990   66.4350 C.ar   35  PHE35      -0.0000
     12  N         23.2000   50.1620   59.3840 N.3    47  LEU47      -0.1231
     13  CA        23.0800   49.5150   60.6810 C.3    47  LEU47       0.1693
     14  C         24.4540   49.0940   61.2220 C.2    47  LEU47       0.2592
     15  O         24.8300   49.4400   62.3550 O.2    47  LEU47      -0.2718
     16  CB        22.1560   48.3030   60.5390 C.3    47  LEU47       0.0284
     17  CG        21.4040   47.8400   61.7870 C.3    47  LEU47       0.0019
     18  CD1       20.2420   46.9400   61.3880 C.3    47  LEU47       0.0001
     19  CD2       22.3570   47.1190   62.7080 C.3    47  LEU47       0.0001
     20  N         25.2090   48.3630   60.4080 N.am   48  THR48      -0.1953
     21  CA        26.5390   47.9060   60.8050 C.3    48  THR48       0.1897
     22  C         27.4040   47.6030   59.5910 C.2    48  THR48       0.2313
     23  O         26.8910   47.3540   58.5060 O.2    48  THR48      -0.2863
     24  CB        26.4590   46.6200   61.6530 C.3    48  THR48       0.1794
     25  OG1       27.7790   46.1900   62.0100 O.3    48  THR48      -0.2208
     26  CG2       25.7650   45.5100   60.8690 C.3    48  THR48       0.0378
     27  N         29.7160   45.2750   60.0140 N.3    50  SER50      -0.1217
     28  CA        30.1930   43.9500   60.3970 C.3    50  SER50       0.1889
     29  C         29.6460   42.8440   59.4920 C.2    50  SER50       0.2288
     30  O         28.4760   42.4790   59.5830 O.2    50  SER50      -0.2866
     31  CB        29.8160   43.6650   61.8540 C.3    50  SER50       0.2089
     32  OG        30.3130   42.4060   62.2650 O.3    50  SER50      -0.2183
     33  N         33.8350   46.6930   73.5550 N.3   131  ASP131     -0.1239
     34  CA        32.8110   46.2960   74.5160 C.3   131  ASP131      0.1674
     35  C         32.8140   44.8240   74.9090 C.2   131  ASP131      0.2266
     36  O         32.7440   44.4990   76.0940 O.2   131  ASP131     -0.2867
     37  CB        31.4240   46.6820   73.9990 C.3   131  ASP131      0.1410
     38  CG        31.1600   48.1710   74.1020 C.2   131  ASP131      0.3668
     39  OD1       30.0590   48.6090   73.7070 O.co2 131  ASP131     -0.2456
     40  OD2       32.0520   48.9040   74.5830 O.co2 131  ASP131     -0.2456
     41  N         35.4210   42.6400   59.4670 N.3   264  LYS264     -0.1245
     42  CA        35.6750   44.0480   59.1880 C.3   264  LYS264      0.1561
     43  C         36.6560   44.1290   58.0200 C.2   264  LYS264      0.2260
     44  O         36.2960   43.8310   56.8780 O.2   264  LYS264     -0.2867
     45  CB        36.2570   44.7600   60.4160 C.3   264  LYS264      0.0271
     46  CG        35.3870   44.7030   61.6740 C.3   264  LYS264      0.0035
     47  CD        34.1160   45.5450   61.5650 C.3   264  LYS264      0.0206
     48  CE        33.4310   45.6560   62.9330 C.3   264  LYS264      0.1093
     49  NZ        32.1750   46.4620   62.9180 N.3   264  LYS264     -0.1314
     50  N         21.4140   53.2140   63.5680 N.3   386  VAL386     -0.1245
     51  CA        21.1450   52.7920   64.9370 C.3   386  VAL386      0.1561
     52  C         21.2790   53.8800   65.9970 C.2   386  VAL386      0.2260
     53  O         22.2390   54.6480   65.9970 O.2   386  VAL386     -0.2867
     54  CB        22.0800   51.6300   65.3270 C.3   386  VAL386      0.0252
     55  CG1       21.8220   51.2070   66.7700 C.3   386  VAL386      0.0019
     56  CG2       21.8640   50.4590   64.3760 C.3   386  VAL386      0.0019
     57  N         22.1600   55.3870   69.5410 N.3   388  ILE388     -0.1245
     58  CA        23.0960   55.1090   70.6180 C.3   388  ILE388      0.1561
     59  C         22.7670   56.1940   71.6490 C.2   388  ILE388      0.2260
     60  O         23.4660   57.2000   71.7600 O.2   388  ILE388     -0.2867
     61  CB        24.5660   55.2510   70.1610 C.3   388  ILE388      0.0252
     62  CG1       24.8200   54.4130   68.8970 C.3   388  ILE388      0.0019
     63  CG2       25.4950   54.7760   71.2690 C.3   388  ILE388      0.0019
     64  CD1       24.6070   52.9230   69.0830 C.3   388  ILE388      0.0001
     65  N         18.5730   53.0100   73.5440 N.3   392  LEU392     -0.1245
     66  CA        19.4490   51.8460   73.6670 C.3   392  LEU392      0.1561
     67  C         19.8340   51.5760   75.1240 C.2   392  LEU392      0.2260
     68  O         19.8170   50.4330   75.5810 O.2   392  LEU392     -0.2867
     69  CB        20.7210   52.0580   72.8390 C.3   392  LEU392      0.0270
     70  CG        21.8370   51.0170   72.9990 C.3   392  LEU392      0.0019
     71  CD1       21.4200   49.7030   72.3510 C.3   392  LEU392      0.0001
     72  CD2       23.1150   51.5370   72.3560 C.3   392  LEU392      0.0001
     73  N         24.1990   56.5720   65.2470 N.3   411  ARG411     -0.1245
     74  CA        25.3920   56.0130   64.6250 C.3   411  ARG411      0.1563
     75  C         25.2840   55.7120   63.1350 C.2   411  ARG411      0.2260
     76  O         24.3100   55.1170   62.6780 O.2   411  ARG411     -0.2867
     77  CB        25.7920   54.7330   65.3560 C.3   411  ARG411      0.0307
     78  CG        27.0720   54.0990   64.8370 C.3   411  ARG411      0.0489
     79  CD        27.3090   52.7810   65.5330 C.3   411  ARG411      0.2205
     80  NE        26.3050   51.7980   65.1380 N.pl3 411  ARG411     -0.0865
     81  CZ        26.1730   50.6030   65.6940 C.cat 411  ARG411      0.5346
     82  NH1       26.9780   50.2390   66.6840 N.pl3 411  ARG411      0.1354
     83  NH2       25.2520   49.7640   65.2440 N.pl3 411  ARG411      0.1354
     84  N         15.6330   47.8600   72.5300 N.3   455  HIS455     -0.1226
     85  CA        15.9000   48.5090   71.2460 C.3   455  HIS455      0.1752
     86  C         15.6520   47.6400   70.0130 C.2   455  HIS455      0.2596
     87  O         15.3090   48.1530   68.9490 O.2   455  HIS455     -0.2718
     88  CB        17.3380   49.0450   71.2070 C.3   455  HIS455      0.0759
     89  CG        18.3850   48.0030   71.4600 C.ar  455  HIS455      0.0818
     90  ND1       18.4870   47.3250   72.6560 N.ar  455  HIS455     -0.2268
     91  CD2       19.3850   47.5340   70.6760 C.ar  455  HIS455      0.1154
     92  CE1       19.5050   46.4840   72.5990 C.ar  455  HIS455      0.1986
     93  NE2       20.0670   46.5920   71.4080 N.ar  455  HIS455     -0.2212
     94  N         15.8060   46.3290   70.1640 N.am  456  PHE456     -0.1976
     95  CA        15.6260   45.3990   69.0530 C.3   456  PHE456      0.1639
     96  C         14.1830   45.1510   68.6220 C.2   456  PHE456      0.2290
     97  O         13.9170   44.9930   67.4300 O.2   456  PHE456     -0.2864
     98  CB        16.2780   44.0510   69.3890 C.3   456  PHE456      0.0560
     99  CG        17.7840   44.0780   69.3830 C.ar  456  PHE456     -0.0200
    100  CD1       18.5080   43.3010   70.2850 C.ar  456  PHE456     -0.0042
    101  CD2       18.4800   44.8550   68.4630 C.ar  456  PHE456     -0.0042
    102  CE1       19.9060   43.2990   70.2710 C.ar  456  PHE456     -0.0003
    103  CE2       19.8790   44.8590   68.4400 C.ar  456  PHE456     -0.0003
    104  CZ        20.5910   44.0780   69.3480 C.ar  456  PHE456     -0.0000
@<TRIPOS>BOND
     1    44    43    2
     2    43    42    1
     3    23    22    2
     4    42    41    1
     5    42    45    1
     6    12    13    1
     7    29    30    2
     8    29    28    1
     9    22    21    1
    10    27    28    1
    11    28    31    1
    12    20    21    1
    13    20    14   am
    14    45    46    1
    15    16    13    1
    16    16    17    1
    17    13    14    1
    18    21    24    1
    19    26    24    1
    20    14    15    2
    21    18    17    1
    22    47    46    1
    23    47    48    1
    24    24    25    1
    25    17    19    1
    26    31    32    1
    27    76    75    2
    28    49    48    1
    29     4     3    2
    30    75    74    1
    31     3     2    1
    32     1     2    1
    33    50    51    1
    34     2     5    1
    35    56    54    1
    36    74    73    1
    37    74    77    1
    38    78    77    1
    39    78    79    1
    40    51    54    1
    41    51    52    1
    42     8    10   ar
    43     8     6   ar
    44    80    79    1
    45    80    81    2
    46     5     6    1
    47    83    81    1
    48    54    55    1
    49    10    11   ar
    50     6     7   ar
    51    81    82    1
    52    53    52    2
    53    11     9   ar
    54     7     9   ar
    55    97    96    2
    56   103   101   ar
    57   103   104   ar
    58   101    99   ar
    59    96    95    1
    60    62    64    1
    61    62    61    1
    62    87    86    2
    63    95    98    1
    64    95    94    1
    65   104   102   ar
    66    99    98    1
    67    99   100   ar
    68    57    58    1
    69    86    94   am
    70    86    85    1
    71    61    58    1
    72    61    63    1
    73   102   100   ar
    74    58    59    1
    75    91    93   ar
    76    91    89   ar
    77    88    85    1
    78    88    89    1
    79    85    84    1
    80    93    92   ar
    81    89    90   ar
    82    59    60    2
    83    71    70    1
    84    72    70    1
    85    92    90   ar
    86    69    70    1
    87    69    66    1
    88    65    66    1
    89    33    34    1
    90    66    67    1
    91    39    38   ar
    92    37    38    1
    93    37    34    1
    94    38    40   ar
    95    34    35    1
    96    35    36    2
    97    67    68    2
