@<TRIPOS>MOLECULE
tmp/2or9B00.pdb
 182 185 0 0 0
SMALL
GASTEIGER

@<TRIPOS>ATOM
      1  N         53.6040   63.9670   14.8140 N.3    30  SER30      -0.1202
      2  CA        54.1520   62.8200   15.5350 C.3    30  SER30       0.2020
      3  C         53.8100   61.4420   14.9850 C.2    30  SER30       0.2619
      4  O         54.3390   60.4390   15.4640 O.2    30  SER30      -0.2717
      5  CB        53.7330   62.8710   17.0040 C.3    30  SER30       0.2103
      6  OG        52.4360   62.3320   17.1950 O.3    30  SER30      -0.2182
      7  N         52.9300   61.3790   13.9930 N.am   31  HIS31      -0.1961
      8  CA        52.5530   60.0910   13.4200 C.3    31  HIS31       0.1787
      9  C         53.3330   59.7270   12.1650 C.2    31  HIS31       0.2620
     10  O         53.2550   58.5970   11.6930 O.2    31  HIS31      -0.2715
     11  CB        51.0590   60.0640   13.0810 C.3    31  HIS31       0.0785
     12  CG        50.1610   59.9540   14.2730 C.ar   31  HIS31       0.0821
     13  ND1       48.8160   59.6750   14.1630 N.ar   31  HIS31      -0.2267
     14  CD2       50.4120   60.0820   15.5970 C.ar   31  HIS31       0.1154
     15  CE1       48.2770   59.6360   15.3680 C.ar   31  HIS31       0.1986
     16  NE2       49.2240   59.8800   16.2560 N.ar   31  HIS31      -0.2212
     17  N         54.0750   60.6850   11.6220 N.am   32  TYR32      -0.1960
     18  CA        54.8410   60.4620   10.3980 C.3    32  TYR32       0.1771
     19  C         56.3520   60.6400   10.5600 C.2    32  TYR32       0.2620
     20  O         56.8240   61.3570   11.4420 O.2    32  TYR32      -0.2715
     21  CB        54.3920   61.4370    9.2960 C.3    32  TYR32       0.0574
     22  CG        52.9850   61.2780    8.7570 C.ar   32  TYR32      -0.0198
     23  CD1       51.8800   61.7180    9.4850 C.ar   32  TYR32      -0.0009
     24  CD2       52.7660   60.7220    7.4910 C.ar   32  TYR32      -0.0009
     25  CE1       50.5880   61.6080    8.9620 C.ar   32  TYR32       0.0417
     26  CE2       51.4870   60.6080    6.9590 C.ar   32  TYR32       0.0417
     27  CZ        50.4020   61.0510    7.6990 C.ar   32  TYR32       0.1957
     28  OH        49.1310   60.9140    7.1860 O.3    32  TYR32      -0.2866
     29  N         57.1050   59.9870    9.6840 N.am   33  GLY33      -0.1954
     30  CA        58.5440   60.1410    9.7030 C.3    33  GLY33       0.1869
     31  C         58.8680   61.1920    8.6530 C.2    33  GLY33       0.2309
     32  O         58.3700   61.1170    7.5410 O.2    33  GLY33      -0.2863
     33  N         62.5370   58.5460   12.1270 N.3    52  GLY52      -0.1210
     34  CA        61.2930   57.8390   12.3650 C.3    52  GLY52       0.1956
     35  C         60.2950   58.7560   13.0460 C.2    52  GLY52       0.2613
     36  O         60.6760   59.8190   13.5350 O.2    52  GLY52      -0.2717
     37  N         59.0260   58.3510   13.0790 N.am   53  SER53      -0.1938
     38  CA        57.9610   59.1410   13.7000 C.3    53  SER53       0.2055
     39  C         58.2470   59.5480   15.1440 C.2    53  SER53       0.2642
     40  O         58.1180   60.7190   15.5080 O.2    53  SER53      -0.2714
     41  CB        56.6420   58.3680   13.6480 C.3    53  SER53       0.2130
     42  OG        56.7540   57.1000   14.2740 O.3    53  SER53      -0.2179
     43  N         58.6290   58.5810   15.9690 N.am   54  ARG54      -0.1977
     44  CA        58.9200   58.8620   17.3680 C.3    54  ARG54       0.1597
     45  C         60.2440   59.6020   17.5140 C.2    54  ARG54       0.2287
     46  O         60.5170   60.2010   18.5530 O.2    54  ARG54      -0.2864
     47  CB        58.9520   57.5590   18.1600 C.3    54  ARG54       0.0334
     48  CG        57.6280   56.8150   18.1630 C.3    54  ARG54       0.0492
     49  CD        57.8430   55.3630   18.5500 C.3    54  ARG54       0.2205
     50  NE        56.6170   54.5690   18.5060 N.pl3  54  ARG54      -0.0865
     51  CZ        55.5700   54.7570   19.3040 C.cat  54  ARG54       0.5346
     52  NH1       55.5890   55.7230   20.2180 N.pl3  54  ARG54       0.1354
     53  NH2       54.5080   53.9670   19.1970 N.pl3  54  ARG54       0.1354
     54  N         56.8650   61.7010    5.1640 N.3    99  ARG99      -0.1231
     55  CA        56.9710   60.3530    4.6170 C.3    99  ARG99       0.1694
     56  C         55.6890   59.6270    4.9570 C.2    99  ARG99       0.2593
     57  O         55.0940   59.8660    6.0040 O.2    99  ARG99      -0.2718
     58  CB        58.0890   59.5580    5.2890 C.3    99  ARG99       0.0321
     59  CG        59.4290   59.5960    4.6340 C.3    99  ARG99       0.0489
     60  CD        60.3760   58.7210    5.4330 C.3    99  ARG99       0.2205
     61  NE        59.7580   57.4430    5.7910 N.pl3  99  ARG99      -0.0865
     62  CZ        60.4430   56.3400    6.0800 C.cat  99  ARG99       0.5346
     63  NH1       61.7660   56.3570    6.0550 N.pl3  99  ARG99       0.1354
     64  NH2       59.8100   55.2180    6.3710 N.pl3  99  ARG99       0.1354
     65  N         55.2660   58.7340    4.0840 N.am  100  SER100     -0.1938
     66  CA        54.0930   57.9320    4.3650 C.3   100  SER100      0.2055
     67  C         54.5050   56.4970    4.0850 C.2   100  SER100      0.2643
     68  O         55.3650   56.2350    3.2340 O.2   100  SER100     -0.2714
     69  CB        52.9030   58.3430    3.4910 C.3   100  SER100      0.2130
     70  OG        52.1380   59.3480    4.1420 O.3   100  SER100     -0.2179
     71  N         53.9330   55.5600    4.8220 N.am  101  GLU101     -0.1963
     72  CA        54.2900   54.1870    4.5770 C.3   101  GLU101      0.1733
     73  C         53.2480   53.6090    3.6300 C.2   101  GLU101      0.2616
     74  O         52.4510   54.3600    3.0670 O.2   101  GLU101     -0.2715
     75  CB        54.4100   53.4220    5.8950 C.3   101  GLU101      0.0429
     76  CG        55.4460   54.0450    6.8460 C.3   101  GLU101      0.1163
     77  CD        56.6030   54.7490    6.1100 C.2   101  GLU101      0.3649
     78  OE1       57.1970   54.1500    5.1790 O.co2 101  GLU101     -0.2457
     79  OE2       56.9160   55.9060    6.4780 O.co2 101  GLU101     -0.2457
     80  N         53.2220   52.2950    3.4690 N.am  102  PHE102     -0.1960
     81  CA        52.3280   51.7110    2.4970 C.3   102  PHE102      0.1771
     82  C         51.3460   50.6430    2.9820 C.2   102  PHE102      0.2620
     83  O         51.6900   49.7420    3.7610 O.2   102  PHE102     -0.2715
     84  CB        53.2210   51.1550    1.3830 C.3   102  PHE102      0.0574
     85  CG        52.4990   50.7510    0.1210 C.ar  102  PHE102     -0.0200
     86  CD1       51.5040   51.5720   -0.4450 C.ar  102  PHE102     -0.0042
     87  CD2       52.9150   49.6110   -0.5780 C.ar  102  PHE102     -0.0042
     88  CE1       50.9540   51.2620   -1.6970 C.ar  102  PHE102     -0.0003
     89  CE2       52.3710   49.2980   -1.8200 C.ar  102  PHE102     -0.0003
     90  CZ        51.3880   50.1270   -2.3880 C.ar  102  PHE102     -0.0000
     91  N         50.1040   50.7600    2.5230 N.am  103  TYR103     -0.1960
     92  CA        49.0930   49.7690    2.8480 C.3   103  TYR103      0.1771
     93  C         48.9200   48.9410    1.5760 C.2   103  TYR103      0.2620
     94  O         48.2840   49.3800    0.6090 O.2   103  TYR103     -0.2715
     95  CB        47.7600   50.4220    3.2100 C.3   103  TYR103      0.0574
     96  CG        46.6540   49.4110    3.4180 C.ar  103  TYR103     -0.0198
     97  CD1       46.2660   49.0120    4.7050 C.ar  103  TYR103     -0.0009
     98  CD2       46.0090   48.8260    2.3260 C.ar  103  TYR103     -0.0009
     99  CE1       45.2700   48.0610    4.8880 C.ar  103  TYR103      0.0417
    100  CE2       45.0140   47.8750    2.5000 C.ar  103  TYR103      0.0417
    101  CZ        44.6510   47.4980    3.7740 C.ar  103  TYR103      0.1957
    102  OH        43.6760   46.5500    3.9210 O.3   103  TYR103     -0.2866
    103  N         49.5020   47.7520    1.5600 N.am  104  TYR104     -0.1960
    104  CA        49.3780   46.9070    0.3880 C.3   104  TYR104      0.1771
    105  C         48.4880   45.7240    0.7140 C.2   104  TYR104      0.2619
    106  O         48.8330   44.8850    1.5480 O.2   104  TYR104     -0.2715
    107  CB        50.7450   46.3980   -0.0710 C.3   104  TYR104      0.0574
    108  CG        50.7300   45.8480   -1.4780 C.ar  104  TYR104     -0.0198
    109  CD1       50.5270   46.7030   -2.5610 C.ar  104  TYR104     -0.0009
    110  CD2       50.8860   44.4810   -1.7310 C.ar  104  TYR104     -0.0009
    111  CE1       50.4780   46.2270   -3.8570 C.ar  104  TYR104      0.0417
    112  CE2       50.8390   43.9850   -3.0350 C.ar  104  TYR104      0.0417
    113  CZ        50.6320   44.8710   -4.0980 C.ar  104  TYR104      0.1957
    114  OH        50.5700   44.4310   -5.4130 O.3   104  TYR104     -0.2866
    115  N         47.3420   45.6830    0.0490 N.am  105  TYR105     -0.1974
    116  CA        46.3410   44.6290    0.1860 C.3   105  TYR105      0.1639
    117  C         46.1880   43.9040    1.5100 C.2   105  TYR105      0.2290
    118  O         46.3080   42.6860    1.5560 O.2   105  TYR105     -0.2864
    119  CB        46.5190   43.5900   -0.9340 C.3   105  TYR105      0.0560
    120  CG        46.2120   44.1460   -2.3090 C.ar  105  TYR105     -0.0198
    121  CD1       47.1350   44.9440   -2.9790 C.ar  105  TYR105     -0.0009
    122  CD2       44.9670   43.9460   -2.9050 C.ar  105  TYR105     -0.0009
    123  CE1       46.8240   45.5370   -4.2020 C.ar  105  TYR105      0.0417
    124  CE2       44.6460   44.5320   -4.1310 C.ar  105  TYR105      0.0417
    125  CZ        45.5750   45.3310   -4.7760 C.ar  105  TYR105      0.1957
    126  OH        45.2690   45.9330   -5.9900 O.3   105  TYR105     -0.2866
    127  N         50.8170   46.1670    5.9960 N.3   108  THR108     -0.1203
    128  CA        51.5190   47.4420    5.9820 C.3   108  THR108      0.1994
    129  C         53.0340   47.3160    5.7940 C.2   108  THR108      0.2618
    130  O         53.6810   46.4400    6.3820 O.2   108  THR108     -0.2717
    131  CB        51.2570   48.1690    7.2780 C.3   108  THR108      0.1784
    132  OG1       51.6330   47.3140    8.3580 O.3   108  THR108     -0.2211
    133  CG2       49.7820   48.5070    7.4090 C.3   108  THR108      0.0376
    134  N         53.5920   48.2270    5.0000 N.am  109  TYR109     -0.1961
    135  CA        55.0110   48.2190    4.6930 C.3   109  TYR109      0.1771
    136  C         55.6790   49.5840    4.7400 C.2   109  TYR109      0.2620
    137  O         55.1110   50.5800    4.2910 O.2   109  TYR109     -0.2715
    138  CB        55.2110   47.6580    3.2970 C.3   109  TYR109      0.0574
    139  CG        54.4400   46.3900    3.0140 C.ar  109  TYR109     -0.0198
    140  CD1       53.0570   46.4250    2.7940 C.ar  109  TYR109     -0.0009
    141  CD2       55.0950   45.1490    2.9390 C.ar  109  TYR109     -0.0009
    142  CE1       52.3420   45.2620    2.5000 C.ar  109  TYR109      0.0417
    143  CE2       54.3880   43.9770    2.6450 C.ar  109  TYR109      0.0417
    144  CZ        53.0100   44.0400    2.4230 C.ar  109  TYR109      0.1957
    145  OH        52.2980   42.8910    2.1100 O.3   109  TYR109     -0.2866
    146  N         56.8900   49.6470    5.2880 N.am  110  TYR110     -0.1960
    147  CA        57.6160   50.9150    5.2730 C.3   110  TYR110      0.1771
    148  C         57.8760   51.2110    3.7880 C.2   110  TYR110      0.2619
    149  O         58.3490   50.3550    3.0320 O.2   110  TYR110     -0.2715
    150  CB        58.9340   50.8030    6.0200 C.3   110  TYR110      0.0574
    151  CG        58.7800   50.9440    7.5110 C.ar  110  TYR110     -0.0198
    152  CD1       58.8550   49.8290    8.3510 C.ar  110  TYR110     -0.0009
    153  CD2       58.5370   52.1900    8.0870 C.ar  110  TYR110     -0.0009
    154  CE1       58.6920   49.9510    9.7320 C.ar  110  TYR110      0.0417
    155  CE2       58.3730   52.3230    9.4700 C.ar  110  TYR110      0.0417
    156  CZ        58.4500   51.1960   10.2860 C.ar  110  TYR110      0.1957
    157  OH        58.2750   51.3160   11.6490 O.3   110  TYR110     -0.2866
    158  N         57.5550   52.4180    3.3620 N.am  111  TYR111     -0.1974
    159  CA        57.7330   52.7350    1.9680 C.3   111  TYR111      0.1639
    160  C         58.5960   53.9480    1.7370 C.2   111  TYR111      0.2290
    161  O         59.3820   53.9800    0.8030 O.2   111  TYR111     -0.2864
    162  CB        56.3810   52.9630    1.3190 C.3   111  TYR111      0.0560
    163  CG        56.4730   52.8750   -0.1680 C.ar  111  TYR111     -0.0198
    164  CD1       56.5180   51.6300   -0.8020 C.ar  111  TYR111     -0.0009
    165  CD2       56.6150   54.0240   -0.9450 C.ar  111  TYR111     -0.0009
    166  CE1       56.7070   51.5300   -2.1670 C.ar  111  TYR111      0.0417
    167  CE2       56.8080   53.9290   -2.3110 C.ar  111  TYR111      0.0417
    168  CZ        56.8510   52.6790   -2.9090 C.ar  111  TYR111      0.1957
    169  OH        57.0130   52.5730   -4.2530 O.3   111  TYR111     -0.2866
    170  N         57.4550   57.2410    1.1700 N.3   113  ALA113     -0.1245
    171  CA        56.8700   58.0270    0.0790 C.3   113  ALA113      0.1562
    172  C         56.7770   59.4710    0.5250 C.2   113  ALA113      0.2260
    173  O         55.9890   59.8010    1.4060 O.2   113  ALA113     -0.2867
    174  CB        55.4790   57.5110   -0.2590 C.3   113  ALA113      0.0290
    175  N         55.2860   62.5310    0.2700 N.3   115  ASP115     -0.1239
    176  CA        54.0860   63.1260   -0.3040 C.3   115  ASP115      0.1674
    177  C         53.8930   64.6370   -0.1790 C.2   115  ASP115      0.2266
    178  O         52.9770   65.1910   -0.7820 O.2   115  ASP115     -0.2867
    179  CB        52.8390   62.3930    0.2350 C.3   115  ASP115      0.1410
    180  CG        52.8800   62.1520    1.7530 C.2   115  ASP115      0.3668
    181  OD1       53.7240   62.7400    2.4710 O.co2 115  ASP115     -0.2456
    182  OD2       52.0360   61.3710    2.2340 O.co2 115  ASP115     -0.2456
@<TRIPOS>BOND
     1   126   125    1
     2   114   113    1
     3   125   123   ar
     4   125   124   ar
     5   169   168    1
     6   123   121   ar
     7   124   122   ar
     8   113   111   ar
     9   113   112   ar
    10   111   109   ar
    11   112   110   ar
    12   121   120   ar
    13   168   167   ar
    14   168   166   ar
    15   122   120   ar
    16   109   108   ar
    17    90    89   ar
    18    90    88   ar
    19   167   165   ar
    20   120   119    1
    21   166   164   ar
    22    89    87   ar
    23   110   108   ar
    24    88    86   ar
    25   108   107    1
    26   165   163   ar
    27   119   116    1
    28   164   163   ar
    29   178   177    2
    30    87    85   ar
    31    86    85   ar
    32   176   177    1
    33   176   179    1
    34   176   175    1
    35   174   171    1
    36   163   162    1
    37   107   104    1
    38   115   116    1
    39   115   105   am
    40   171   172    1
    41   171   170    1
    42    85    84    1
    43   116   117    1
    44   179   180    1
    45   104   105    1
    46   104   103    1
    47   172   173    2
    48    94    93    2
    49   105   106    2
    50   161   160    2
    51   162   159    1
    52    84    81    1
    53   117   118    2
    54   103    93   am
    55    93    92    1
    56   160   159    1
    57   180   182   ar
    58   180   181   ar
    59   159   158    1
    60   145   144    1
    61    98   100   ar
    62    98    96   ar
    63   144   142   ar
    64   144   143   ar
    65    81    82    1
    66    81    80    1
    67   100   101   ar
    68   142   140   ar
    69    91    92    1
    70    91    82   am
    71   143   141   ar
    72   140   139   ar
    73    92    95    1
    74   141   139   ar
    75    82    83    2
    76   139   138    1
    77   149   148    2
    78    74    73    2
    79    95    96    1
    80    68    67    2
    81   138   135    1
    82   158   148   am
    83    96    97   ar
    84    80    73   am
    85    69    70    1
    86    69    66    1
    87    73    72    1
    88   101   102    1
    89   101    99   ar
    90   148   147    1
    91    65    66    1
    92    65    56   am
    93    67    66    1
    94    67    71   am
    95   137   136    2
    96    72    71    1
    97    72    75    1
    98    55    56    1
    99    55    54    1
   100    55    58    1
   101    59    58    1
   102    59    60    1
   103   135   136    1
   104   135   134    1
   105    97    99   ar
   106   136   146   am
   107    56    57    2
   108   134   129   am
   109    78    77   ar
   110   147   146    1
   111   147   150    1
   112    60    61    1
   113    61    62    2
   114   129   128    1
   115   129   130    2
   116    75    76    1
   117   128   127    1
   118   128   131    1
   119   150   151    1
   120    63    62    1
   121    62    64    1
   122    77    79   ar
   123    77    76    1
   124    26    24   ar
   125    26    27   ar
   126    28    27    1
   127   131   133    1
   128   131   132    1
   129    24    22   ar
   130   151   153   ar
   131   151   152   ar
   132    32    31    2
   133    27    25   ar
   134   153   155   ar
   135   152   154   ar
   136    31    30    1
   137    22    21    1
   138    22    23   ar
   139    25    23   ar
   140    21    18    1
   141   155   156   ar
   142    29    30    1
   143    29    19   am
   144   154   156   ar
   145   156   157    1
   146    18    19    1
   147    18    17    1
   148    19    20    2
   149    17     9   am
   150    10     9    2
   151    33    34    1
   152     9     8    1
   153    34    35    1
   154    35    37   am
   155    35    36    2
   156    37    38    1
   157    11     8    1
   158    11    12    1
   159     8     7    1
   160    41    38    1
   161    41    42    1
   162    38    39    1
   163     7     3   am
   164    13    12   ar
   165    13    15   ar
   166    12    14   ar
   167     1     2    1
   168     3     4    2
   169     3     2    1
   170    39    40    2
   171    39    43   am
   172    15    16   ar
   173     2     5    1
   174    14    16   ar
   175    43    44    1
   176     5     6    1
   177    44    45    1
   178    44    47    1
   179    45    46    2
   180    47    48    1
   181    48    49    1
   182    50    49    1
   183    50    51    2
   184    53    51    1
   185    51    52    1
