@<TRIPOS>MOLECULE
tmp/2or9D00.pdb
 96 94 0 0 0
SMALL
GASTEIGER

@<TRIPOS>ATOM
      1  N         51.5460   41.3630   11.6340 N.3    56  THR56      -0.1203
      2  CA        52.1220   42.4390   12.4430 C.3    56  THR56       0.1994
      3  C         51.2130   43.6570   12.4510 C.2    56  THR56       0.2618
      4  O         51.2180   44.4500   13.3990 O.2    56  THR56      -0.2717
      5  CB        53.4690   42.8740   11.9170 C.3    56  THR56       0.1784
      6  OG1       53.3960   43.0130   10.4920 O.3    56  THR56      -0.2211
      7  CG2       54.5260   41.8630   12.2970 C.3    56  THR56       0.0376
      8  N         50.4320   43.8050   11.3870 N.am   57  TYR57      -0.1961
      9  CA        49.5090   44.9250   11.2920 C.3    57  TYR57       0.1771
     10  C         48.2150   44.5830   12.0180 C.2    57  TYR57       0.2620
     11  O         47.5430   43.6050   11.6820 O.2    57  TYR57      -0.2715
     12  CB        49.1970   45.2520    9.8330 C.3    57  TYR57       0.0574
     13  CG        47.9890   46.1460    9.6600 C.ar   57  TYR57      -0.0198
     14  CD1       47.9060   47.3710   10.3200 C.ar   57  TYR57      -0.0009
     15  CD2       46.9320   45.7790    8.8240 C.ar   57  TYR57      -0.0009
     16  CE1       46.8040   48.2120   10.1490 C.ar   57  TYR57       0.0417
     17  CE2       45.8190   46.6140    8.6500 C.ar   57  TYR57       0.0417
     18  CZ        45.7690   47.8300    9.3150 C.ar   57  TYR57       0.1957
     19  OH        44.7060   48.6880    9.1350 O.3    57  TYR57      -0.2866
     20  N         47.8800   45.3760   13.0260 N.am   58  THR58      -0.1951
     21  CA        46.6530   45.1660   13.7650 C.3    58  THR58       0.1897
     22  C         45.9350   46.5120   13.7310 C.2    58  THR58       0.2313
     23  O         46.5760   47.5620   13.6590 O.2    58  THR58      -0.2863
     24  CB        46.9390   44.6840   15.2170 C.3    58  THR58       0.1794
     25  OG1       47.5670   45.7230   15.9800 O.3    58  THR58      -0.2208
     26  CG2       47.8590   43.4780   15.1880 C.3    58  THR58       0.0378
     27  N         40.2030   50.3880   21.3420 N.3    65  LYS65      -0.1245
     28  CA        41.6430   50.5890   21.3790 C.3    65  LYS65       0.1561
     29  C         42.1080   50.7940   22.7960 C.2    65  LYS65       0.2260
     30  O         41.5520   51.6110   23.5250 O.2    65  LYS65      -0.2867
     31  CB        42.0170   51.7960   20.5340 C.3    65  LYS65       0.0271
     32  CG        43.4630   51.8360   20.0540 C.3    65  LYS65       0.0035
     33  CD        43.6230   52.8960   18.9510 C.3    65  LYS65       0.0206
     34  CE        45.0830   53.0690   18.4920 C.3    65  LYS65       0.1093
     35  NZ        45.6800   51.8560   17.8280 N.3    65  LYS65      -0.1314
     36  N         39.3800   37.6750    6.5520 N.3    99  ARG99      -0.1245
     37  CA        39.4720   38.9460    5.8800 C.3    99  ARG99       0.1563
     38  C         40.3140   38.8420    4.6100 C.2    99  ARG99       0.2260
     39  O         41.5170   39.0840    4.6330 O.2    99  ARG99      -0.2867
     40  CB        40.0580   39.9950    6.8280 C.3    99  ARG99       0.0307
     41  CG        39.7110   41.3890    6.4130 C.3    99  ARG99       0.0489
     42  CD        40.7860   42.3640    6.8120 C.3    99  ARG99       0.2205
     43  NE        40.9610   43.3270    5.7360 N.pl3  99  ARG99      -0.0865
     44  CZ        40.7720   44.6240    5.8730 C.cat  99  ARG99       0.5346
     45  NH1       40.4120   45.1130    7.0570 N.pl3  99  ARG99       0.1354
     46  NH2       40.9000   45.4170    4.8180 N.pl3  99  ARG99       0.1354
     47  N         41.7370   40.0400    1.1310 N.3   101  GLU101     -0.1231
     48  CA        41.9980   41.2240    0.3340 C.3   101  GLU101      0.1699
     49  C         43.1550   40.8450   -0.5730 C.2   101  GLU101      0.2592
     50  O         44.2870   40.6960   -0.1170 O.2   101  GLU101     -0.2718
     51  CB        42.3980   42.4260    1.1930 C.3   101  GLU101      0.0402
     52  CG        42.0230   43.7550    0.5200 C.3   101  GLU101      0.1161
     53  CD        42.7880   44.9580    1.0570 C.2   101  GLU101      0.3649
     54  OE1       42.8570   45.1360    2.2880 O.co2 101  GLU101     -0.2457
     55  OE2       43.3090   45.7380    0.2350 O.co2 101  GLU101     -0.2457
     56  N         42.8630   40.6720   -1.8560 N.am  102  PHE102     -0.1962
     57  CA        43.8850   40.2890   -2.8190 C.3   102  PHE102      0.1771
     58  C         43.7560   41.0470   -4.1260 C.2   102  PHE102      0.2619
     59  O         42.6920   41.5780   -4.4610 O.2   102  PHE102     -0.2715
     60  CB        43.8080   38.7920   -3.1700 C.3   102  PHE102      0.0574
     61  CG        43.8050   37.8690   -1.9850 C.ar  102  PHE102     -0.0200
     62  CD1       42.6370   37.6590   -1.2480 C.ar  102  PHE102     -0.0042
     63  CD2       44.9650   37.1890   -1.6170 C.ar  102  PHE102     -0.0042
     64  CE1       42.6280   36.7900   -0.1710 C.ar  102  PHE102     -0.0003
     65  CE2       44.9640   36.3160   -0.5350 C.ar  102  PHE102     -0.0003
     66  CZ        43.7960   36.1150    0.1870 C.ar  102  PHE102     -0.0000
     67  N         44.8600   41.0530   -4.8660 N.am  103  TYR103     -0.1974
     68  CA        44.9360   41.6860   -6.1630 C.3   103  TYR103      0.1639
     69  C         44.3300   40.7160   -7.1600 C.2   103  TYR103      0.2290
     70  O         43.6570   41.1120   -8.1120 O.2   103  TYR103     -0.2864
     71  CB        46.4010   41.9660   -6.5210 C.3   103  TYR103      0.0560
     72  CG        46.5850   42.3650   -7.9570 C.ar  103  TYR103     -0.0198
     73  CD1       46.0160   43.5420   -8.4500 C.ar  103  TYR103     -0.0009
     74  CD2       47.2610   41.5310   -8.8490 C.ar  103  TYR103     -0.0009
     75  CE1       46.1020   43.8740   -9.7980 C.ar  103  TYR103      0.0417
     76  CE2       47.3620   41.8480  -10.1980 C.ar  103  TYR103      0.0417
     77  CZ        46.7750   43.0190  -10.6700 C.ar  103  TYR103      0.1957
     78  OH        46.8230   43.3200  -12.0180 O.3   103  TYR103     -0.2866
     79  N         41.1380   42.2590   -7.6860 N.3   110  TYR110     -0.1241
     80  CA        40.7070   43.0520   -6.5340 C.3   110  TYR110      0.1605
     81  C         39.5640   42.3560   -5.8170 C.2   110  TYR110      0.2264
     82  O         38.3900   42.7120   -5.9740 O.2   110  TYR110     -0.2867
     83  CB        40.2660   44.4460   -6.9660 C.3   110  TYR110      0.0534
     84  CG        41.2620   45.0960   -7.8630 C.ar  110  TYR110     -0.0201
     85  CD1       41.0640   45.1300   -9.2350 C.ar  110  TYR110     -0.0009
     86  CD2       42.4230   45.6520   -7.3480 C.ar  110  TYR110     -0.0009
     87  CE1       41.9930   45.7030  -10.0740 C.ar  110  TYR110      0.0417
     88  CE2       43.3700   46.2390   -8.1880 C.ar  110  TYR110      0.0417
     89  CZ        43.1460   46.2620   -9.5540 C.ar  110  TYR110      0.1957
     90  OH        44.0670   46.8570  -10.4000 O.3   110  TYR110     -0.2866
     91  N         38.2000   41.5290   -2.2090 N.3   112  SER112     -0.1217
     92  CA        38.2930   41.8290   -0.7970 C.3   112  SER112      0.1889
     93  C         36.9150   41.6180   -0.2130 C.2   112  SER112      0.2288
     94  O         35.9320   42.1780   -0.7040 O.2   112  SER112     -0.2866
     95  CB        38.7940   43.2530   -0.5750 C.3   112  SER112      0.2089
     96  OG        38.2020   44.1140   -1.4980 O.3   112  SER112     -0.2183
@<TRIPOS>BOND
     1    78    77    1
     2    77    76   ar
     3    77    75   ar
     4    90    89    1
     5    76    74   ar
     6    87    89   ar
     7    87    85   ar
     8    75    73   ar
     9    89    88   ar
    10    85    84   ar
    11    74    72   ar
    12    73    72   ar
    13    88    86   ar
    14    70    69    2
    15    72    71    1
    16    84    86   ar
    17    84    83    1
    18    79    80    1
    19    69    68    1
    20    83    80    1
    21    80    81    1
    22    71    68    1
    23    68    67    1
    24    82    81    2
    25    67    58   am
    26    59    58    2
    27    58    57    1
    28    60    57    1
    29    60    61    1
    30    57    56    1
    31    91    92    1
    32    61    63   ar
    33    61    62   ar
    34    56    49   am
    35    63    65   ar
    36    96    95    1
    37    62    64   ar
    38    92    95    1
    39    92    93    1
    40    94    93    2
    41    49    50    2
    42    49    48    1
    43    65    66   ar
    44    64    66   ar
    45    55    53   ar
    46    48    47    1
    47    48    51    1
    48    52    53    1
    49    52    51    1
    50    53    54   ar
    51    38    39    2
    52    38    37    1
    53    46    44    1
    54    43    44    2
    55    43    42    1
    56    44    45    1
    57    37    36    1
    58    37    40    1
    59    41    42    1
    60    41    40    1
    61    17    15   ar
    62    17    18   ar
    63    15    13   ar
    64    19    18    1
    65    18    16   ar
    66    13    12    1
    67    13    14   ar
    68    12     9    1
    69    16    14   ar
    70     6     5    1
    71     9     8    1
    72     9    10    1
    73     8     3   am
    74     1     2    1
    75    11    10    2
    76     5     7    1
    77     5     2    1
    78    10    20   am
    79     2     3    1
    80     3     4    2
    81    20    21    1
    82    23    22    2
    83    22    21    1
    84    21    24    1
    85    26    24    1
    86    24    25    1
    87    35    34    1
    88    34    33    1
    89    33    32    1
    90    32    31    1
    91    31    28    1
    92    27    28    1
    93    28    29    1
    94    29    30    2
