@<TRIPOS>MOLECULE
tmp/2oroA01.pdb
 130 130 0 0 0
SMALL
GASTEIGER

@<TRIPOS>ATOM
      1  N         72.4520   -9.4020   59.7640 N.3    81  CYS81      -0.1235
      2  CA        71.1360   -8.8410   59.4490 C.3    81  CYS81       0.1677
      3  C         70.6010   -7.9170   60.5310 C.2    81  CYS81       0.2270
      4  O         70.3290   -8.3420   61.6550 O.2    81  CYS81      -0.2867
      5  CB        70.0980   -9.9380   59.1990 C.3    81  CYS81       0.0956
      6  SG        68.5610   -9.2850   58.4580 S.3    81  CYS81      -0.0801
      7  N         69.2410  -12.2300   43.5000 N.3   144  GLN144     -0.1245
      8  CA        68.0610  -11.5500   44.0360 C.3   144  GLN144      0.1566
      9  C         66.8570  -11.8400   43.1390 C.2   144  GLN144      0.2260
     10  O         67.0200  -12.1460   41.9550 O.2   144  GLN144     -0.2867
     11  CB        68.3030  -10.0380   44.0990 C.3   144  GLN144      0.0367
     12  CG        69.4890   -9.6460   44.9630 C.3   144  GLN144      0.0905
     13  CD        69.9880   -8.2280   44.7060 C.2   144  GLN144      0.2608
     14  OE1       71.1460   -7.9250   44.9610 O.2   144  GLN144     -0.2717
     15  NE2       69.1120   -7.3550   44.2130 N.am  144  GLN144     -0.0878
     16  N         66.6070   -7.8570   40.2330 N.3   147  ARG147     -0.1245
     17  CA        67.8940   -7.2000   40.0390 C.3   147  ARG147      0.1563
     18  C         68.0770   -6.8080   38.5780 C.2   147  ARG147      0.2260
     19  O         67.5910   -7.4950   37.6830 O.2   147  ARG147     -0.2867
     20  CB        69.0300   -8.1280   40.4800 C.3   147  ARG147      0.0307
     21  CG        70.3810   -7.4620   40.5100 C.3   147  ARG147      0.0489
     22  CD        71.3830   -8.2870   41.2970 C.3   147  ARG147      0.2205
     23  NE        72.5300   -7.4790   41.7080 N.pl3 147  ARG147     -0.0865
     24  CZ        73.4490   -7.8730   42.5850 C.cat 147  ARG147      0.5346
     25  NH1       73.3650   -9.0700   43.1500 N.pl3 147  ARG147      0.1354
     26  NH2       74.4530   -7.0670   42.9010 N.pl3 147  ARG147      0.1354
     27  N         64.5620   -0.5200   42.3310 N.3   225  TYR225     -0.1241
     28  CA        63.4830   -1.4010   42.7750 C.3   225  TYR225      0.1605
     29  C         63.2630   -1.3120   44.2830 C.2   225  TYR225      0.2264
     30  O         64.2020   -1.0870   45.0440 O.2   225  TYR225     -0.2867
     31  CB        63.7620   -2.8560   42.3660 C.3   225  TYR225      0.0534
     32  CG        65.2040   -3.2980   42.5280 C.ar  225  TYR225     -0.0201
     33  CD1       66.1200   -3.1270   41.4940 C.ar  225  TYR225     -0.0009
     34  CD2       65.6490   -3.8890   43.7090 C.ar  225  TYR225     -0.0009
     35  CE1       67.4300   -3.5290   41.6240 C.ar  225  TYR225      0.0417
     36  CE2       66.9650   -4.2980   43.8510 C.ar  225  TYR225      0.0417
     37  CZ        67.8490   -4.1150   42.8020 C.ar  225  TYR225      0.1957
     38  OH        69.1570   -4.5270   42.9120 O.3   225  TYR225     -0.2866
     39  N         63.9530   -5.5950   48.2480 N.3   228  PRO228     -0.2102
     40  CA        65.2090   -6.3410   48.3690 C.3   228  PRO228      0.1504
     41  C         64.9750   -7.7910   48.8030 C.2   228  PRO228      0.2576
     42  O         64.6400   -8.0490   49.9550 O.2   228  PRO228     -0.2718
     43  CB        65.9950   -5.5390   49.4040 C.3   228  PRO228      0.0282
     44  CG        64.9390   -4.9280   50.2720 C.3   228  PRO228      0.0208
     45  CD        63.7040   -4.7330   49.4190 C.3   228  PRO228      0.0893
     46  N         65.1570   -8.7260   47.8730 N.am  229  ALA229     -0.1966
     47  CA        64.9130  -10.1400   48.1380 C.3   229  ALA229      0.1728
     48  C         66.1290  -10.9890   47.7770 C.2   229  ALA229      0.2616
     49  O         66.6190  -10.9370   46.6530 O.2   229  ALA229     -0.2715
     50  CB        63.7030  -10.6120   47.3470 C.3   229  ALA229      0.0334
     51  N         66.5990  -11.7840   48.7320 N.am  230  VAL230     -0.1977
     52  CA        67.7340  -12.6640   48.5130 C.3   230  VAL230      0.1596
     53  C         67.2440  -14.0240   48.0170 C.2   230  VAL230      0.2287
     54  O         66.4520  -14.6910   48.6860 O.2   230  VAL230     -0.2864
     55  CB        68.5380  -12.8470   49.8270 C.3   230  VAL230      0.0276
     56  CG1       69.6350  -13.8940   49.6440 C.3   230  VAL230      0.0022
     57  CG2       69.1420  -11.5140   50.2490 C.3   230  VAL230      0.0022
     58  N         63.9170  -15.0840   50.3710 N.3   247  PHE247     -0.1227
     59  CA        63.3090  -14.2410   51.4020 C.3   247  PHE247      0.1736
     60  C         63.5000  -12.7510   51.0900 C.2   247  PHE247      0.2595
     61  O         64.3140  -12.3970   50.2420 O.2   247  PHE247     -0.2718
     62  CB        63.9040  -14.5780   52.7790 C.3   247  PHE247      0.0547
     63  CG        65.3970  -14.3690   52.8750 C.ar  247  PHE247     -0.0202
     64  CD1       65.9290  -13.0980   53.0340 C.ar  247  PHE247     -0.0042
     65  CD2       66.2660  -15.4480   52.8190 C.ar  247  PHE247     -0.0042
     66  CE1       67.2950  -12.9040   53.1360 C.ar  247  PHE247     -0.0003
     67  CE2       67.6380  -15.2610   52.9230 C.ar  247  PHE247     -0.0003
     68  CZ        68.1490  -13.9860   53.0820 C.ar  247  PHE247     -0.0000
     69  N         62.7520  -11.8810   51.7670 N.am  248  ASN248     -0.1960
     70  CA        62.9370  -10.4340   51.6050 C.3   248  ASN248      0.1819
     71  C         62.7250   -9.6560   52.9010 C.2   248  ASN248      0.2622
     72  O         62.0830  -10.1300   53.8430 O.2   248  ASN248     -0.2715
     73  CB        61.9730   -9.8730   50.5510 C.3   248  ASN248      0.1195
     74  CG        60.5300   -9.8440   51.0450 C.2   248  ASN248      0.2630
     75  OD1       59.8260  -10.8510   50.9990 O.2   248  ASN248     -0.2716
     76  ND2       60.0950   -8.6860   51.5380 N.am  248  ASN248     -0.0877
     77  N         63.2690   -8.4460   52.9260 N.am  249  GLY249     -0.1940
     78  CA        62.9150   -7.4810   53.9450 C.3   249  GLY249      0.2014
     79  C         62.5830   -6.1880   53.2370 C.2   249  GLY249      0.2639
     80  O         62.0150   -6.2010   52.1420 O.2   249  GLY249     -0.2714
     81  N         62.9260   -5.0680   53.8610 N.am  250  TRP250     -0.1959
     82  CA        62.9360   -3.7920   53.1650 C.3   250  TRP250      0.1771
     83  C         64.3270   -3.1840   53.3020 C.2   250  TRP250      0.2620
     84  O         65.1330   -3.6530   54.1000 O.2   250  TRP250     -0.2715
     85  CB        61.8660   -2.8570   53.7450 C.3   250  TRP250      0.0590
     86  CG        61.8740   -2.7700   55.2400 C.ar  250  TRP250      0.0006
     87  CD1       62.7470   -2.0610   56.0170 C.ar  250  TRP250      0.0946
     88  CD2       60.9530   -3.3990   56.1420 C.ar  250  TRP250      0.0152
     89  NE1       62.4240   -2.2100   57.3480 N.ar  250  TRP250     -0.2442
     90  CE2       61.3270   -3.0240   57.4510 C.ar  250  TRP250      0.0810
     91  CE3       59.8490   -4.2420   55.9710 C.ar  250  TRP250      0.0012
     92  CZ2       60.6370   -3.4640   58.5810 C.ar  250  TRP250      0.0191
     93  CZ3       59.1630   -4.6790   57.0950 C.ar  250  TRP250      0.0001
     94  CH2       59.5600   -4.2890   58.3820 C.ar  250  TRP250      0.0015
     95  N         64.6120   -2.1550   52.5120 N.am  251  TYR251     -0.1960
     96  CA        65.9260   -1.5270   52.5310 C.3   251  TYR251      0.1771
     97  C         66.2190   -0.7910   53.8370 C.2   251  TYR251      0.2619
     98  O         65.3140   -0.2800   54.4910 O.2   251  TYR251     -0.2715
     99  CB        66.0600   -0.5600   51.3530 C.3   251  TYR251      0.0574
    100  CG        66.4960   -1.2340   50.0750 C.ar  251  TYR251     -0.0198
    101  CD1       67.7230   -1.8870   49.9990 C.ar  251  TYR251     -0.0009
    102  CD2       65.6860   -1.2210   48.9460 C.ar  251  TYR251     -0.0009
    103  CE1       68.1320   -2.5060   48.8360 C.ar  251  TYR251      0.0417
    104  CE2       66.0880   -1.8420   47.7780 C.ar  251  TYR251      0.0417
    105  CZ        67.3110   -2.4820   47.7310 C.ar  251  TYR251      0.1957
    106  OH        67.7090   -3.1150   46.5770 O.3   251  TYR251     -0.2866
    107  N         67.4960   -0.7540   54.2110 N.am  252  MET252     -0.1963
    108  CA        67.9510    0.0290   55.3570 C.3   252  MET252      0.1736
    109  C         68.0890    1.4960   54.9730 C.2   252  MET252      0.2617
    110  O         67.4590    2.3690   55.5710 O.2   252  MET252     -0.2715
    111  CB        69.3090   -0.4800   55.8440 C.3   252  MET252      0.0427
    112  CG        69.2620   -1.7900   56.5990 C.3   252  MET252      0.0599
    113  SD        68.6590   -1.5830   58.2820 S.3   252  MET252     -0.1393
    114  CE        69.7140   -0.2550   58.8760 C.3   252  MET252      0.0692
    115  N         68.9230    1.7580   53.9720 N.am  253  GLY253     -0.1955
    116  CA        69.2110    3.1280   53.5800 C.3   253  GLY253      0.1869
    117  C         70.5520    3.6100   54.1040 C.2   253  GLY253      0.2309
    118  O         71.3560    2.8210   54.6090 O.2   253  GLY253     -0.2863
    119  N         75.4570  -19.4790   52.4830 N.3   300  TYR300     -0.1241
    120  CA        75.7260  -19.1840   51.0880 C.3   300  TYR300      0.1605
    121  C         75.9220  -20.4890   50.3210 C.2   300  TYR300      0.2264
    122  O         76.1310  -21.5510   50.9130 O.2   300  TYR300     -0.2867
    123  CB        76.9610  -18.2900   50.9600 C.3   300  TYR300      0.0534
    124  CG        76.6950  -16.8770   51.4280 C.ar  300  TYR300     -0.0201
    125  CD1       75.9200  -16.0140   50.6700 C.ar  300  TYR300     -0.0009
    126  CD2       77.1740  -16.4250   52.6510 C.ar  300  TYR300     -0.0009
    127  CE1       75.6200  -14.7450   51.1140 C.ar  300  TYR300      0.0417
    128  CE2       76.8780  -15.1490   53.1070 C.ar  300  TYR300      0.0417
    129  CZ        76.0960  -14.3160   52.3330 C.ar  300  TYR300      0.1957
    130  OH        75.7590  -13.0590   52.7950 O.3   300  TYR300     -0.2866
@<TRIPOS>BOND
     1    19    18    2
     2    18    17    1
     3    17    16    1
     4    17    20    1
     5    20    21    1
     6    21    22    1
     7    22    23    1
     8    33    35   ar
     9    33    32   ar
    10    35    37   ar
    11    23    24    2
    12    10     9    2
    13    27    28    1
    14    31    32    1
    15    31    28    1
    16    32    34   ar
    17    24    26    1
    18    24    25    1
    19    28    29    1
    20    37    38    1
    21    37    36   ar
    22     9     8    1
    23     7     8    1
    24    34    36   ar
    25     8    11    1
    26    11    12    1
    27    15    13   am
    28    29    30    2
    29    13    14    2
    30    13    12    1
    31   106   105    1
    32    49    48    2
    33    50    47    1
    34   105   104   ar
    35   105   103   ar
    36    48    47    1
    37    48    51   am
    38   104   102   ar
    39    46    47    1
    40    46    41   am
    41    53    52    1
    42    53    54    2
    43    39    40    1
    44    39    45    1
    45    40    41    1
    46    40    43    1
    47    52    51    1
    48    52    55    1
    49    41    42    2
    50   103   101   ar
    51   102   100   ar
    52    43    44    1
    53    45    44    1
    54    56    55    1
    55    55    57    1
    56   101   100   ar
    57   100    99    1
    58    61    60    2
    59   121   122    2
    60   121   120    1
    61    58    59    1
    62    73    74    1
    63    73    70    1
    64   125   127   ar
    65   125   124   ar
    66   123   120    1
    67   123   124    1
    68    75    74    2
    69    74    76   am
    70   120   119    1
    71    60    59    1
    72    60    69   am
    73   127   129   ar
    74    99    96    1
    75    59    62    1
    76   124   126   ar
    77    70    69    1
    78    70    71    1
    79    80    79    2
    80   129   130    1
    81   129   128   ar
    82    95    96    1
    83    95    83   am
    84    96    97    1
    85   126   128   ar
    86    62    63    1
    87    65    63   ar
    88    65    67   ar
    89    63    64   ar
    90    71    77   am
    91    71    72    2
    92    67    68   ar
    93    77    78    1
    94    64    66   ar
    95    68    66   ar
    96    82    83    1
    97    82    85    1
    98    82    81    1
    99    79    81   am
   100    79    78    1
   101    83    84    2
   102   116   115    1
   103   116   117    1
   104    85    86    1
   105    97   107   am
   106    97    98    2
   107   115   109   am
   108   117   118    2
   109   107   108    1
   110   109   108    1
   111   109   110    2
   112    86    87   ar
   113    86    88   ar
   114   108   111    1
   115   111   112    1
   116    91    88   ar
   117    91    93   ar
   118    87    89   ar
   119    88    90   ar
   120   112   113    1
   121    93    94   ar
   122    89    90   ar
   123    90    92   ar
   124   113   114    1
   125    94    92   ar
   126     6     5    1
   127     5     2    1
   128     2     1    1
   129     2     3    1
   130     3     4    2
