@<TRIPOS>MOLECULE
tmp/2orpA01.pdb
 173 172 0 0 0
SMALL
GASTEIGER

@<TRIPOS>ATOM
      1  N         74.5810  -10.9350   60.3380 N.3    80  ARG80      -0.1231
      2  CA        74.6210   -9.5530   59.8650 C.3    80  ARG80       0.1694
      3  C         73.2550   -8.9180   59.5860 C.2    80  ARG80       0.2592
      4  O         73.1780   -7.7340   59.2550 O.2    80  ARG80      -0.2718
      5  CB        75.4960   -9.4640   58.6110 C.3    80  ARG80       0.0321
      6  CG        76.9930   -9.5830   58.9060 C.3    80  ARG80       0.0489
      7  CD        77.8290   -9.6290   57.6320 C.3    80  ARG80       0.2205
      8  NE        77.7500  -10.9330   56.9790 N.pl3  80  ARG80      -0.0865
      9  CZ        78.5010  -11.3020   55.9450 C.cat  80  ARG80       0.5346
     10  NH1       79.3960  -10.4610   55.4400 N.pl3  80  ARG80       0.1354
     11  NH2       78.3580  -12.5120   55.4160 N.pl3  80  ARG80       0.1354
     12  N         72.1770   -9.6850   59.7170 N.am   81  CYS81      -0.1970
     13  CA        70.8570   -9.1420   59.3940 C.3    81  CYS81       0.1712
     14  C         70.3180   -8.2260   60.4780 C.2    81  CYS81       0.2296
     15  O         70.0000   -8.6740   61.5790 O.2    81  CYS81      -0.2864
     16  CB        69.8400  -10.2520   59.1610 C.3    81  CYS81       0.0983
     17  SG        68.2530   -9.6090   58.5210 S.3    81  CYS81      -0.0798
     18  N         68.8970  -12.3230   43.4380 N.3   144  GLN144     -0.1245
     19  CA        67.7310  -11.6330   44.0090 C.3   144  GLN144      0.1566
     20  C         66.4870  -11.8940   43.1540 C.2   144  GLN144      0.2260
     21  O         66.5960  -12.1400   41.9520 O.2   144  GLN144     -0.2867
     22  CB        67.9950  -10.1190   44.0780 C.3   144  GLN144      0.0367
     23  CG        69.2110   -9.7370   44.9210 C.3   144  GLN144      0.0905
     24  CD        69.6350   -8.2820   44.7450 C.2   144  GLN144      0.2608
     25  OE1       70.7180   -7.8910   45.1730 O.2   144  GLN144     -0.2717
     26  NE2       68.7800   -7.4780   44.1150 N.am  144  GLN144     -0.0878
     27  N         66.2080   -7.7550   40.3260 N.3   147  ARG147     -0.1245
     28  CA        67.4990   -7.0950   40.1510 C.3   147  ARG147      0.1563
     29  C         67.6680   -6.6960   38.6910 C.2   147  ARG147      0.2260
     30  O         67.1290   -7.3520   37.8020 O.2   147  ARG147     -0.2867
     31  CB        68.6390   -8.0260   40.5800 C.3   147  ARG147      0.0307
     32  CG        69.9920   -7.3240   40.7080 C.3   147  ARG147      0.0489
     33  CD        71.0230   -8.1780   41.4430 C.3   147  ARG147      0.2205
     34  NE        72.1560   -7.3730   41.8970 N.pl3 147  ARG147     -0.0865
     35  CZ        73.1700   -7.8310   42.6260 C.cat 147  ARG147      0.5346
     36  NH1       73.2120   -9.1040   42.9990 N.pl3 147  ARG147      0.1354
     37  NH2       74.1450   -7.0090   42.9890 N.pl3 147  ARG147      0.1354
     38  N         64.1540   -0.7400   42.6060 N.3   219  TYR219     -0.1241
     39  CA        63.0330   -1.5840   43.0060 C.3   219  TYR219      0.1605
     40  C         62.8060   -1.5080   44.5110 C.2   219  TYR219      0.2264
     41  O         63.7490   -1.3590   45.2880 O.2   219  TYR219     -0.2867
     42  CB        63.2790   -3.0370   42.5810 C.3   219  TYR219      0.0534
     43  CG        64.7130   -3.4910   42.7340 C.ar  219  TYR219     -0.0201
     44  CD1       65.6280   -3.3120   41.7040 C.ar  219  TYR219     -0.0009
     45  CD2       65.1550   -4.0900   43.9060 C.ar  219  TYR219     -0.0009
     46  CE1       66.9420   -3.7160   41.8340 C.ar  219  TYR219      0.0417
     47  CE2       66.4690   -4.4980   44.0450 C.ar  219  TYR219      0.0417
     48  CZ        67.3560   -4.3080   43.0060 C.ar  219  TYR219      0.1957
     49  OH        68.6620   -4.7220   43.1310 O.3   219  TYR219     -0.2866
     50  N         63.6170   -5.8360   48.3480 N.3   222  PRO222     -0.2102
     51  CA        64.8790   -6.5690   48.4690 C.3   222  PRO222      0.1504
     52  C         64.6330   -8.0230   48.8600 C.2   222  PRO222      0.2576
     53  O         64.2800   -8.3150   50.0000 O.2   222  PRO222     -0.2718
     54  CB        65.6280   -5.7930   49.5450 C.3   222  PRO222      0.0282
     55  CG        64.5270   -5.3040   50.4520 C.3   222  PRO222      0.0208
     56  CD        63.3060   -5.0760   49.5730 C.3   222  PRO222      0.0893
     57  N         64.8200   -8.9300   47.9080 N.am  223  ALA223     -0.1966
     58  CA        64.5420  -10.3420   48.1300 C.3   223  ALA223      0.1728
     59  C         65.7520  -11.1740   47.7300 C.2   223  ALA223      0.2616
     60  O         66.1880  -11.1180   46.5820 O.2   223  ALA223     -0.2715
     61  CB        63.3260  -10.7680   47.3140 C.3   223  ALA223      0.0334
     62  N         66.2840  -11.9420   48.6770 N.am  224  VAL224     -0.1977
     63  CA        67.4220  -12.8160   48.4200 C.3   224  VAL224      0.1596
     64  C         66.9110  -14.1420   47.8800 C.2   224  VAL224      0.2287
     65  O         66.0900  -14.8000   48.5180 O.2   224  VAL224     -0.2864
     66  CB        68.2280  -13.0690   49.7200 C.3   224  VAL224      0.0276
     67  CG1       69.3770  -14.0330   49.4610 C.3   224  VAL224      0.0022
     68  CG2       68.7600  -11.7570   50.2580 C.3   224  VAL224      0.0022
     69  N         69.9430  -18.4790   48.7100 N.3   227  MET227     -0.1245
     70  CA        70.5160  -19.1280   49.8830 C.3   227  MET227      0.1570
     71  C         69.8680  -20.4740   50.1690 C.2   227  MET227      0.2261
     72  O         68.8540  -20.8330   49.5650 O.2   227  MET227     -0.2867
     73  CB        70.4210  -18.2110   51.1090 C.3   227  MET227      0.0387
     74  CG        71.2810  -16.9560   50.9720 C.3   227  MET227      0.0595
     75  SD        71.3250  -15.9200   52.4490 S.3   227  MET227     -0.1393
     76  CE        72.6340  -16.7540   53.3950 C.3   227  MET227      0.0692
     77  N         63.6220  -15.2880   50.2310 N.3   241  PHE241     -0.1227
     78  CA        63.0140  -14.4780   51.2770 C.3   241  PHE241      0.1736
     79  C         63.2050  -12.9900   51.0060 C.2   241  PHE241      0.2595
     80  O         64.0440  -12.5940   50.1910 O.2   241  PHE241     -0.2718
     81  CB        63.6170  -14.8330   52.6460 C.3   241  PHE241      0.0547
     82  CG        65.1040  -14.5920   52.7400 C.ar  241  PHE241     -0.0202
     83  CD1       65.6010  -13.3160   52.9670 C.ar  241  PHE241     -0.0042
     84  CD2       66.0000  -15.6450   52.6250 C.ar  241  PHE241     -0.0042
     85  CE1       66.9670  -13.0930   53.0800 C.ar  241  PHE241     -0.0003
     86  CE2       67.3700  -15.4310   52.7380 C.ar  241  PHE241     -0.0003
     87  CZ        67.8510  -14.1530   52.9670 C.ar  241  PHE241     -0.0000
     88  N         62.4320  -12.1600   51.7010 N.am  242  ASN242     -0.1960
     89  CA        62.5980  -10.7190   51.5690 C.3   242  ASN242      0.1819
     90  C         62.3660   -9.9990   52.8890 C.2   242  ASN242      0.2622
     91  O         61.6790  -10.5030   53.7790 O.2   242  ASN242     -0.2715
     92  CB        61.6200  -10.1610   50.5380 C.3   242  ASN242      0.1195
     93  CG        60.2040  -10.1060   51.0680 C.2   242  ASN242      0.2630
     94  OD1       59.4910  -11.0970   51.0290 O.2   242  ASN242     -0.2716
     95  ND2       59.8030   -8.9480   51.5940 N.am  242  ASN242     -0.0877
     96  N         62.9540   -8.8130   52.9920 N.am  243  GLY243     -0.1940
     97  CA        62.5970   -7.8770   54.0390 C.3   243  GLY243      0.2014
     98  C         62.2770   -6.5630   53.3550 C.2   243  GLY243      0.2639
     99  O         61.7650   -6.5580   52.2370 O.2   243  GLY243     -0.2714
    100  N         62.5710   -5.4500   54.0160 N.am  244  TRP244     -0.1959
    101  CA        62.5470   -4.1490   53.3560 C.3   244  TRP244      0.1771
    102  C         63.9300   -3.5140   53.4620 C.2   244  TRP244      0.2620
    103  O         64.7780   -3.9810   54.2200 O.2   244  TRP244     -0.2715
    104  CB        61.4880   -3.2390   53.9960 C.3   244  TRP244      0.0590
    105  CG        61.5740   -3.1530   55.4960 C.ar  244  TRP244      0.0006
    106  CD1       62.4970   -2.4640   56.2250 C.ar  244  TRP244      0.0946
    107  CD2       60.7010   -3.7800   56.4440 C.ar  244  TRP244      0.0152
    108  NE1       62.2550   -2.6210   57.5690 N.ar  244  TRP244     -0.2442
    109  CE2       61.1580   -3.4250   57.7310 C.ar  244  TRP244      0.0810
    110  CE3       59.5780   -4.6090   56.3310 C.ar  244  TRP244      0.0012
    111  CZ2       60.5330   -3.8690   58.8970 C.ar  244  TRP244      0.0191
    112  CZ3       58.9570   -5.0500   57.4910 C.ar  244  TRP244      0.0001
    113  CH2       59.4380   -4.6790   58.7580 C.ar  244  TRP244      0.0015
    114  N         64.1570   -2.4580   52.6920 N.am  245  TYR245     -0.1960
    115  CA        65.4770   -1.8510   52.6190 C.3   245  TYR245      0.1771
    116  C         65.8920   -1.1190   53.8860 C.2   245  TYR245      0.2619
    117  O         65.0540   -0.6180   54.6370 O.2   245  TYR245     -0.2715
    118  CB        65.5560   -0.8940   51.4300 C.3   245  TYR245      0.0574
    119  CG        66.1190   -1.5440   50.1950 C.ar  245  TYR245     -0.0198
    120  CD1       67.4380   -1.9770   50.1610 C.ar  245  TYR245     -0.0009
    121  CD2       65.3350   -1.7360   49.0630 C.ar  245  TYR245     -0.0009
    122  CE1       67.9610   -2.5820   49.0400 C.ar  245  TYR245      0.0417
    123  CE2       65.8500   -2.3410   47.9340 C.ar  245  TYR245      0.0417
    124  CZ        67.1640   -2.7610   47.9280 C.ar  245  TYR245      0.1957
    125  OH        67.6900   -3.3560   46.8050 O.3   245  TYR245     -0.2866
    126  N         67.2000   -1.0760   54.1100 N.am  246  MET246     -0.1963
    127  CA        67.7860   -0.2660   55.1680 C.3   246  MET246      0.1736
    128  C         67.7980    1.1930   54.7180 C.2   246  MET246      0.2617
    129  O         67.5240    2.1000   55.5020 O.2   246  MET246     -0.2715
    130  CB        69.2140   -0.7360   55.4470 C.3   246  MET246      0.0427
    131  CG        69.5930   -0.7230   56.9120 C.3   246  MET246      0.0599
    132  SD        68.5140   -1.7790   57.8820 S.3   246  MET246     -0.1393
    133  CE        68.6150   -0.9660   59.4590 C.3   246  MET246      0.0692
    134  N         68.1140    1.4090   53.4440 N.am  247  GLY247     -0.1940
    135  CA        68.0380    2.7440   52.8790 C.3   247  GLY247      0.2014
    136  C         69.3650    3.4770   52.8720 C.2   247  GLY247      0.2640
    137  O         69.5510    4.4240   52.1060 O.2   247  GLY247     -0.2714
    138  N         70.2900    3.0400   53.7200 N.am  248  THR248     -0.1936
    139  CA        71.5910    3.6880   53.8360 C.3   248  THR248      0.2028
    140  C         72.3940    3.5860   52.5400 C.2   248  THR248      0.2642
    141  O         73.2720    4.4090   52.2780 O.2   248  THR248     -0.2714
    142  CB        72.4190    3.0750   54.9850 C.3   248  THR248      0.1808
    143  OG1       72.6390    1.6830   54.7310 O.3   248  THR248     -0.2208
    144  CG2       71.6860    3.2330   56.3090 C.3   248  THR248      0.0379
    145  N         72.0910    2.5720   51.7340 N.am  249  GLU249     -0.1963
    146  CA        72.6570    2.4570   50.3920 C.3   249  GLU249      0.1733
    147  C         71.9880    1.3190   49.6310 C.2   249  GLU249      0.2616
    148  O         72.2350    0.1480   49.9130 O.2   249  GLU249     -0.2715
    149  CB        74.1650    2.1980   50.4610 C.3   249  GLU249      0.0429
    150  CG        74.8220    2.0490   49.0960 C.3   249  GLU249      0.1163
    151  CD        76.1530    1.3250   49.1620 C.2   249  GLU249      0.3649
    152  OE1       76.2500    0.3210   49.8990 O.co2 249  GLU249     -0.2457
    153  OE2       77.1010    1.7600   48.4750 O.co2 249  GLU249     -0.2457
    154  N         71.1450    1.6650   48.6640 N.am  250  ILE250     -0.1977
    155  CA        70.4220    0.6590   47.8960 C.3   250  ILE250      0.1596
    156  C         71.1520    0.3070   46.6000 C.2   250  ILE250      0.2287
    157  O         71.0600   -0.8210   46.1140 O.2   250  ILE250     -0.2864
    158  CB        68.9870    1.1340   47.5660 C.3   250  ILE250      0.0276
    159  CG1       69.0320    2.4150   46.7360 C.3   250  ILE250      0.0022
    160  CG2       68.2130    1.3840   48.8510 C.3   250  ILE250      0.0022
    161  CD1       67.6640    2.9850   46.4460 C.3   250  ILE250      0.0001
    162  N         75.0970  -19.7120   52.2140 N.3   290  TYR290     -0.1241
    163  CA        75.3180  -19.3640   50.8220 C.3   290  TYR290      0.1605
    164  C         75.5630  -20.6490   50.0420 C.2   290  TYR290      0.2264
    165  O         75.8000  -21.6980   50.6290 O.2   290  TYR290     -0.2867
    166  CB        76.5100  -18.4060   50.7050 C.3   290  TYR290      0.0534
    167  CG        76.1930  -17.0460   51.2910 C.ar  290  TYR290     -0.0201
    168  CD1       75.4070  -16.1390   50.5960 C.ar  290  TYR290     -0.0009
    169  CD2       76.6220  -16.6950   52.5630 C.ar  290  TYR290     -0.0009
    170  CE1       75.0520  -14.9220   51.1540 C.ar  290  TYR290      0.0417
    171  CE2       76.2680  -15.4800   53.1280 C.ar  290  TYR290      0.0417
    172  CZ        75.4790  -14.5990   52.4180 C.ar  290  TYR290      0.1957
    173  OH        75.0920  -13.3990   52.9870 O.3   290  TYR290     -0.2866
@<TRIPOS>BOND
     1    30    29    2
     2    29    28    1
     3    28    27    1
     4    28    31    1
     5    31    32    1
     6    32    33    1
     7    33    34    1
     8    44    46   ar
     9    44    43   ar
    10    46    48   ar
    11    34    35    2
    12    21    20    2
    13    42    43    1
    14    42    39    1
    15    38    39    1
    16    35    37    1
    17    35    36    1
    18    43    45   ar
    19    48    49    1
    20    48    47   ar
    21    39    40    1
    22    20    19    1
    23    18    19    1
    24    45    47   ar
    25    19    22    1
    26    22    23    1
    27    26    24   am
    28    40    41    2
    29    24    23    1
    30    24    25    2
    31   157   156    2
    32   161   159    1
    33    60    59    2
    34   156   155    1
    35   159   158    1
    36   125   124    1
    37    61    58    1
    38   158   155    1
    39   158   160    1
    40    59    58    1
    41    59    62   am
    42    64    63    1
    43    64    65    2
    44   155   154    1
    45    57    58    1
    46    57    52   am
    47   124   123   ar
    48   124   122   ar
    49   123   121   ar
    50    50    51    1
    51    50    56    1
    52    63    62    1
    53    63    66    1
    54    51    52    1
    55    51    54    1
    56   153   151   ar
    57   154   147   am
    58    69    70    1
    59    52    53    2
    60   122   120   ar
    61   121   119   ar
    62   150   151    1
    63   150   149    1
    64   151   152   ar
    65    67    66    1
    66    54    55    1
    67    72    71    2
    68    56    55    1
    69   147   148    2
    70   147   146    1
    71    66    68    1
    72    70    71    1
    73    70    73    1
    74   164   165    2
    75   164   163    1
    76   120   119   ar
    77    80    79    2
    78   119   118    1
    79    77    78    1
    80   146   149    1
    81   146   145    1
    82    92    93    1
    83    92    89    1
    84   168   170   ar
    85   168   167   ar
    86   166   163    1
    87   166   167    1
    88   163   162    1
    89    74    73    1
    90    74    75    1
    91    79    78    1
    92    79    88   am
    93    94    93    2
    94    93    95   am
    95   170   172   ar
    96    78    81    1
    97   167   169   ar
    98   118   115    1
    99    89    88    1
   100    89    90    1
   101   145   140   am
   102   137   136    2
   103    99    98    2
   104   141   140    2
   105   172   173    1
   106   172   171   ar
   107    75    76    1
   108   140   139    1
   109   169   171   ar
   110   115   114    1
   111   115   116    1
   112    84    86   ar
   113    84    82   ar
   114    81    82    1
   115   114   102   am
   116    86    87   ar
   117    82    83   ar
   118   136   135    1
   119   136   138   am
   120   135   134    1
   121    90    96   am
   122    90    91    2
   123    83    85   ar
   124    87    85   ar
   125    96    97    1
   126    98   100   am
   127    98    97    1
   128   101   102    1
   129   101   104    1
   130   101   100    1
   131   134   128   am
   132   102   103    2
   133   138   139    1
   134   139   142    1
   135   116   126   am
   136   116   117    2
   137   104   105    1
   138   126   127    1
   139   128   127    1
   140   128   129    2
   141   143   142    1
   142   142   144    1
   143   127   130    1
   144    11     9    1
   145    10     9    1
   146   130   131    1
   147   105   106   ar
   148   105   107   ar
   149     9     8    2
   150   106   108   ar
   151   110   107   ar
   152   110   112   ar
   153   107   109   ar
   154   131   132    1
   155     8     7    1
   156   112   113   ar
   157   108   109   ar
   158     7     6    1
   159   109   111   ar
   160   132   133    1
   161    17    16    1
   162     5     6    1
   163     5     2    1
   164   113   111   ar
   165    16    13    1
   166     4     3    2
   167    13    12    1
   168    13    14    1
   169     3    12   am
   170     3     2    1
   171     2     1    1
   172    14    15    2
