@<TRIPOS>MOLECULE
tmp/2orqA01.pdb
 103 102 0 0 0
SMALL
GASTEIGER

@<TRIPOS>ATOM
      1  N         71.7800  -10.0300   59.2330 N.3    81  CYS81      -0.1235
      2  CA        70.4660   -9.4820   58.9300 C.3    81  CYS81       0.1677
      3  C         69.9580   -8.5450   60.0170 C.2    81  CYS81       0.2270
      4  O         69.6640   -8.9680   61.1340 O.2    81  CYS81      -0.2867
      5  CB        69.4400  -10.5880   58.7210 C.3    81  CYS81       0.0956
      6  SG        67.8660   -9.9400   58.0750 S.3    81  CYS81      -0.0801
      7  N         68.5510  -12.3030   43.0620 N.3   144  GLN144     -0.1245
      8  CA        67.3240  -11.7420   43.6410 C.3   144  GLN144      0.1566
      9  C         66.1330  -11.9950   42.7220 C.2   144  GLN144      0.2260
     10  O         66.3040  -12.1680   41.5110 O.2   144  GLN144     -0.2867
     11  CB        67.4580  -10.2320   43.8440 C.3   144  GLN144      0.0367
     12  CG        68.6770   -9.7950   44.6200 C.3   144  GLN144      0.0905
     13  CD        68.8210   -8.2860   44.6510 C.2   144  GLN144      0.2608
     14  OE1       69.8230   -7.7590   45.1160 O.2   144  GLN144     -0.2717
     15  NE2       67.8150   -7.5830   44.1470 N.am  144  GLN144     -0.0878
     16  N         65.7140   -7.7670   39.8520 N.3   147  ARG147     -0.1245
     17  CA        67.0070   -7.1180   39.7220 C.3   147  ARG147      0.1563
     18  C         67.1880   -6.7030   38.2690 C.2   147  ARG147      0.2260
     19  O         66.6900   -7.3680   37.3610 O.2   147  ARG147     -0.2867
     20  CB        68.1210   -8.0820   40.1530 C.3   147  ARG147      0.0307
     21  CG        69.4410   -7.3980   40.4750 C.3   147  ARG147      0.0489
     22  CD        70.4030   -8.3230   41.2080 C.3   147  ARG147      0.2205
     23  NE        71.4970   -7.5710   41.8210 N.pl3 147  ARG147     -0.0865
     24  CZ        72.3800   -8.0810   42.6770 C.cat 147  ARG147      0.5346
     25  NH1       72.3120   -9.3590   43.0320 N.pl3 147  ARG147      0.1354
     26  NH2       73.3250   -7.3070   43.1930 N.pl3 147  ARG147      0.1354
     27  N         63.1960   -6.0360   47.7810 N.3   220  PRO220     -0.2102
     28  CA        64.4630   -6.7680   47.8880 C.3   220  PRO220      0.1504
     29  C         64.2670   -8.2230   48.3270 C.2   220  PRO220      0.2576
     30  O         63.9990   -8.4990   49.4970 O.2   220  PRO220     -0.2718
     31  CB        65.2510   -5.9550   48.9120 C.3   220  PRO220      0.0282
     32  CG        64.1870   -5.3940   49.8210 C.3   220  PRO220      0.0208
     33  CD        62.9390   -5.2040   48.9710 C.3   220  PRO220      0.0893
     34  N         64.4030   -9.1520   47.3880 N.am  221  ALA221     -0.1966
     35  CA        64.1740  -10.5570   47.6860 C.3   221  ALA221      0.1728
     36  C         65.3820  -11.4010   47.3020 C.2   221  ALA221      0.2616
     37  O         65.8230  -11.3710   46.1600 O.2   221  ALA221     -0.2715
     38  CB        62.9380  -11.0490   46.9510 C.3   221  ALA221      0.0334
     39  N         65.9120  -12.1500   48.2610 N.am  222  VAL222     -0.1977
     40  CA        67.0280  -13.0510   47.9950 C.3   222  VAL222      0.1596
     41  C         66.4760  -14.3260   47.3820 C.2   222  VAL222      0.2287
     42  O         65.5560  -14.9420   47.9280 O.2   222  VAL222     -0.2864
     43  CB        67.7950  -13.3880   49.2980 C.3   222  VAL222      0.0276
     44  CG1       68.9560  -14.3500   49.0080 C.3   222  VAL222      0.0022
     45  CG2       68.3140  -12.1030   49.9300 C.3   222  VAL222      0.0022
     46  N         63.2160  -15.4350   49.7970 N.3   239  PHE239     -0.1227
     47  CA        62.6040  -14.6450   50.8540 C.3   239  PHE239      0.1736
     48  C         62.8280  -13.1650   50.5900 C.2   239  PHE239      0.2595
     49  O         63.6950  -12.7890   49.8080 O.2   239  PHE239     -0.2718
     50  CB        63.1850  -15.0300   52.2220 C.3   239  PHE239      0.0547
     51  CG        64.6810  -14.8790   52.3130 C.ar  239  PHE239     -0.0202
     52  CD1       65.2540  -13.6380   52.5600 C.ar  239  PHE239     -0.0042
     53  CD2       65.5110  -15.9780   52.1710 C.ar  239  PHE239     -0.0042
     54  CE1       66.6320  -13.4990   52.6640 C.ar  239  PHE239     -0.0003
     55  CE2       66.8940  -15.8470   52.2750 C.ar  239  PHE239     -0.0003
     56  CZ        67.4510  -14.6030   52.5230 C.ar  239  PHE239     -0.0000
     57  N         62.0430  -12.3190   51.2430 N.am  240  ASN240     -0.1960
     58  CA        62.2270  -10.8840   51.0930 C.3   240  ASN240      0.1819
     59  C         62.0440  -10.1690   52.4190 C.2   240  ASN240      0.2622
     60  O         61.3240  -10.6360   53.2980 O.2   240  ASN240     -0.2715
     61  CB        61.2140  -10.3210   50.0970 C.3   240  ASN240      0.1195
     62  CG        59.8100  -10.3110   50.6600 C.2   240  ASN240      0.2630
     63  OD1       59.1230  -11.3250   50.6350 O.2   240  ASN240     -0.2716
     64  ND2       59.3830   -9.1650   51.1930 N.am  240  ASN240     -0.0877
     65  N         62.7000   -9.0220   52.5480 N.am  241  GLY241     -0.1940
     66  CA        62.3310   -8.0620   53.5700 C.3   241  GLY241      0.2014
     67  C         61.9510   -6.7610   52.8890 C.2   241  GLY241      0.2639
     68  O         61.3600   -6.7740   51.8040 O.2   241  GLY241     -0.2714
     69  N         62.2840   -5.6390   53.5230 N.am  242  TRP242     -0.1959
     70  CA        62.2520   -4.3420   52.8560 C.3   242  TRP242      0.1771
     71  C         63.6300   -3.6960   52.9430 C.2   242  TRP242      0.2619
     72  O         64.4770   -4.1300   53.7190 O.2   242  TRP242     -0.2715
     73  CB        61.1910   -3.4290   53.4910 C.3   242  TRP242      0.0590
     74  CG        61.2370   -3.3590   54.9950 C.ar  242  TRP242      0.0006
     75  CD1       62.1290   -2.6580   55.7580 C.ar  242  TRP242      0.0946
     76  CD2       60.3470   -4.0060   55.9160 C.ar  242  TRP242      0.0152
     77  NE1       61.8480   -2.8270   57.0920 N.ar  242  TRP242     -0.2442
     78  CE2       60.7600   -3.6500   57.2170 C.ar  242  TRP242      0.0810
     79  CE3       59.2420   -4.8500   55.7680 C.ar  242  TRP242      0.0012
     80  CZ2       60.1070   -4.1080   58.3620 C.ar  242  TRP242      0.0191
     81  CZ3       58.5940   -5.3040   56.9050 C.ar  242  TRP242      0.0001
     82  CH2       59.0280   -4.9320   58.1860 C.ar  242  TRP242      0.0015
     83  N         63.8580   -2.6690   52.1330 N.am  243  TYR243     -0.1974
     84  CA        65.1630   -2.0290   52.0760 C.3   243  TYR243      0.1639
     85  C         65.5020   -1.2590   53.3440 C.2   243  TYR243      0.2290
     86  O         64.6180   -0.7220   54.0130 O.2   243  TYR243     -0.2864
     87  CB        65.2360   -1.0780   50.8780 C.3   243  TYR243      0.0560
     88  CG        65.7160   -1.7440   49.6130 C.ar  243  TYR243     -0.0198
     89  CD1       67.0190   -2.2080   49.5080 C.ar  243  TYR243     -0.0009
     90  CD2       64.8690   -1.9090   48.5230 C.ar  243  TYR243     -0.0009
     91  CE1       67.4670   -2.8160   48.3590 C.ar  243  TYR243      0.0417
     92  CE2       65.3080   -2.5190   47.3660 C.ar  243  TYR243      0.0417
     93  CZ        66.6090   -2.9710   47.2900 C.ar  243  TYR243      0.1957
     94  OH        67.0560   -3.5830   46.1420 O.3   243  TYR243     -0.2866
     95  N         71.2030    1.4400   51.6100 N.3   247  GLU247     -0.1245
     96  CA        71.5340    0.6690   50.4180 C.3   247  GLU247      0.1567
     97  C         70.6350    1.0600   49.2500 C.2   247  GLU247      0.2260
     98  O         71.1100    1.2680   48.1320 O.2   247  GLU247     -0.2867
     99  CB        71.3890   -0.8280   50.7010 C.3   247  GLU247      0.0388
    100  CG        69.9980   -1.2410   51.1520 C.3   247  GLU247      0.1160
    101  CD        69.8740   -2.7410   51.3460 C.2   247  GLU247      0.3649
    102  OE1       68.8600   -3.1840   51.9260 O.co2 247  GLU247     -0.2457
    103  OE2       70.7900   -3.4760   50.9180 O.co2 247  GLU247     -0.2457
@<TRIPOS>BOND
     1    19    18    2
     2    18    17    1
     3    17    16    1
     4    17    20    1
     5    20    21    1
     6    21    22    1
     7    22    23    1
     8    10     9    2
     9    23    24    2
    10    24    25    1
    11    24    26    1
    12     9     8    1
    13     7     8    1
    14     8    11    1
    15    11    12    1
    16    15    13   am
    17    12    13    1
    18    13    14    2
    19    94    93    1
    20    37    36    2
    21    38    35    1
    22    93    92   ar
    23    93    91   ar
    24    36    35    1
    25    36    39   am
    26    92    90   ar
    27    41    42    2
    28    41    40    1
    29    34    35    1
    30    34    29   am
    31    27    28    1
    32    27    33    1
    33    28    29    1
    34    28    31    1
    35    40    39    1
    36    40    43    1
    37    98    97    2
    38    29    30    2
    39    91    89   ar
    40    90    88   ar
    41    31    32    1
    42    33    32    1
    43    44    43    1
    44    97    96    1
    45    43    45    1
    46    89    88   ar
    47    88    87    1
    48    46    47    1
    49    49    48    2
    50    61    62    1
    51    61    58    1
    52    96    99    1
    53    96    95    1
    54    48    47    1
    55    48    57   am
    56    63    62    2
    57    62    64   am
    58    99   100    1
    59    47    50    1
    60    87    84    1
    61   103   101   ar
    62    58    57    1
    63    58    59    1
    64   100   101    1
    65   101   102   ar
    66    68    67    2
    67    84    83    1
    68    84    85    1
    69    83    71   am
    70    53    55   ar
    71    53    51   ar
    72    50    51    1
    73    55    56   ar
    74    51    52   ar
    75    59    65   am
    76    59    60    2
    77    56    54   ar
    78    65    66    1
    79    52    54   ar
    80    70    71    1
    81    70    73    1
    82    70    69    1
    83    67    69   am
    84    67    66    1
    85    71    72    2
    86    85    86    2
    87    73    74    1
    88    74    75   ar
    89    74    76   ar
    90    75    77   ar
    91    79    76   ar
    92    79    81   ar
    93    76    78   ar
    94    81    82   ar
    95    77    78   ar
    96    78    80   ar
    97     6     5    1
    98    82    80   ar
    99     5     2    1
   100     2     1    1
   101     2     3    1
   102     3     4    2
