@<TRIPOS>MOLECULE
tmp/2orrA01.pdb
 136 137 0 0 0
SMALL
GASTEIGER

@<TRIPOS>ATOM
      1  N         72.4210   -9.9040   59.6010 N.3    81  CYS81      -0.1235
      2  CA        71.1100   -9.3520   59.2740 C.3    81  CYS81       0.1677
      3  C         70.6030   -8.4180   60.3580 C.2    81  CYS81       0.2270
      4  O         70.2760   -8.8580   61.4590 O.2    81  CYS81      -0.2867
      5  CB        70.0810  -10.4570   59.0550 C.3    81  CYS81       0.0956
      6  SG        68.5260   -9.8310   58.3470 S.3    81  CYS81      -0.0801
      7  N         69.1220  -12.2910   43.3090 N.3   144  GLN144     -0.1245
      8  CA        67.9350  -11.6770   43.8930 C.3   144  GLN144      0.1566
      9  C         66.7400  -11.8900   42.9680 C.2   144  GLN144      0.2260
     10  O         66.9180  -12.0970   41.7670 O.2   144  GLN144     -0.2867
     11  CB        68.1600  -10.1780   44.1050 C.3   144  GLN144      0.0367
     12  CG        69.2940   -9.8520   45.0530 C.3   144  GLN144      0.0905
     13  CD        69.6380   -8.3720   45.0370 C.2   144  GLN144      0.2608
     14  OE1       70.8080   -7.9980   45.0470 O.2   144  GLN144     -0.2717
     15  NE2       68.6190   -7.5270   44.9970 N.am  144  GLN144     -0.0878
     16  N         66.3330   -7.7620   40.0230 N.3   147  ARG147     -0.1245
     17  CA        67.6040   -7.0750   39.8220 C.3   147  ARG147      0.1563
     18  C         67.7160   -6.6060   38.3760 C.2   147  ARG147      0.2260
     19  O         67.1430   -7.2220   37.4760 O.2   147  ARG147     -0.2867
     20  CB        68.7660   -8.0160   40.1660 C.3   147  ARG147      0.0307
     21  CG        70.0850   -7.3050   40.3940 C.3   147  ARG147      0.0489
     22  CD        71.0040   -8.1210   41.2860 C.3   147  ARG147      0.2205
     23  NE        72.1350   -7.3300   41.7600 N.pl3 147  ARG147     -0.0865
     24  CZ        73.0640   -7.7800   42.5970 C.cat 147  ARG147      0.5346
     25  NH1       73.0000   -9.0230   43.0570 N.pl3 147  ARG147      0.1354
     26  NH2       74.0560   -6.9870   42.9740 N.pl3 147  ARG147      0.1354
     27  N         73.3610   -2.5580   35.7660 N.3   156  ASP156     -0.1239
     28  CA        74.0540   -2.9730   36.9810 C.3   156  ASP156      0.1674
     29  C         75.3360   -3.7190   36.6290 C.2   156  ASP156      0.2266
     30  O         75.3240   -4.6610   35.8380 O.2   156  ASP156     -0.2867
     31  CB        73.1490   -3.8710   37.8310 C.3   156  ASP156      0.1410
     32  CG        73.7720   -4.2280   39.1670 C.2   156  ASP156      0.3668
     33  OD1       74.8820   -3.7350   39.4570 O.co2 156  ASP156     -0.2456
     34  OD2       73.1520   -5.0010   39.9310 O.co2 156  ASP156     -0.2456
     35  N         64.9280    2.7880   41.2660 N.3   211  TRP211     -0.1227
     36  CA        65.3530    1.5160   41.8410 C.3   211  TRP211      0.1737
     37  C         64.1590    0.6790   42.2910 C.2   211  TRP211      0.2595
     38  O         63.0980    1.2160   42.6120 O.2   211  TRP211     -0.2718
     39  CB        66.2860    1.7570   43.0310 C.3   211  TRP211      0.0564
     40  CG        67.1450    0.5690   43.3620 C.ar  211  TRP211      0.0003
     41  CD1       66.9580   -0.3250   44.3790 C.ar  211  TRP211      0.0946
     42  CD2       68.3220    0.1410   42.6630 C.ar  211  TRP211      0.0152
     43  NE1       67.9460   -1.2810   44.3560 N.ar  211  TRP211     -0.2442
     44  CE2       68.7960   -1.0180   43.3130 C.ar  211  TRP211      0.0810
     45  CE3       69.0200    0.6250   41.5510 C.ar  211  TRP211      0.0012
     46  CZ2       69.9360   -1.7000   42.8880 C.ar  211  TRP211      0.0191
     47  CZ3       70.1520   -0.0530   41.1300 C.ar  211  TRP211      0.0001
     48  CH2       70.5990   -1.2030   41.7980 C.ar  211  TRP211      0.0015
     49  N         64.3320   -0.6400   42.3170 N.am  212  TYR212     -0.1976
     50  CA        63.2380   -1.5240   42.6990 C.3   212  TYR212      0.1639
     51  C         63.0610   -1.5380   44.2170 C.2   212  TYR212      0.2290
     52  O         64.0310   -1.4330   44.9660 O.2   212  TYR212     -0.2864
     53  CB        63.4790   -2.9460   42.1630 C.3   212  TYR212      0.0560
     54  CG        64.8310   -3.5380   42.5010 C.ar  212  TYR212     -0.0198
     55  CD1       65.9360   -3.3090   41.6870 C.ar  212  TYR212     -0.0009
     56  CD2       65.0030   -4.3290   43.6340 C.ar  212  TYR212     -0.0009
     57  CE1       67.1780   -3.8480   41.9920 C.ar  212  TYR212      0.0417
     58  CE2       66.2370   -4.8720   43.9450 C.ar  212  TYR212      0.0417
     59  CZ        67.3200   -4.6280   43.1230 C.ar  212  TYR212      0.1957
     60  OH        68.5500   -5.1610   43.4420 O.3   212  TYR212     -0.2866
     61  N         63.8690   -5.9110   48.0410 N.3   215  PRO215     -0.2102
     62  CA        65.1480   -6.6130   48.1510 C.3   215  PRO215      0.1504
     63  C         64.9330   -8.0530   48.6100 C.2   215  PRO215      0.2576
     64  O         64.6340   -8.2950   49.7820 O.2   215  PRO215     -0.2718
     65  CB        65.9020   -5.7870   49.1800 C.3   215  PRO215      0.0282
     66  CG        64.8160   -5.3090   50.1050 C.3   215  PRO215      0.0208
     67  CD        63.5410   -5.1950   49.2860 C.3   215  PRO215      0.0893
     68  N         65.0820   -8.9970   47.6850 N.am  216  ALA216     -0.1966
     69  CA        64.8050  -10.4020   47.9650 C.3   216  ALA216      0.1728
     70  C         65.9990  -11.2730   47.5790 C.2   216  ALA216      0.2616
     71  O         66.4080  -11.2880   46.4210 O.2   216  ALA216     -0.2715
     72  CB        63.5630  -10.8440   47.1940 C.3   216  ALA216      0.0334
     73  N         66.5450  -12.0040   48.5460 N.am  217  VAL217     -0.1977
     74  CA        67.6920  -12.8680   48.3010 C.3   217  VAL217      0.1596
     75  C         67.1580  -14.1910   47.7530 C.2   217  VAL217      0.2287
     76  O         66.2760  -14.8050   48.3510 O.2   217  VAL217     -0.2864
     77  CB        68.4790  -13.1480   49.6050 C.3   217  VAL217      0.0276
     78  CG1       69.6900  -14.0200   49.3160 C.3   217  VAL217      0.0022
     79  CG2       68.9320  -11.8350   50.2430 C.3   217  VAL217      0.0022
     80  N         63.9100  -15.3550   50.0880 N.3   234  PHE234     -0.1227
     81  CA        63.2930  -14.5350   51.1170 C.3   234  PHE234      0.1736
     82  C         63.5040  -13.0580   50.8290 C.2   234  PHE234      0.2595
     83  O         64.3450  -12.6920   50.0130 O.2   234  PHE234     -0.2718
     84  CB        63.8760  -14.8780   52.4920 C.3   234  PHE234      0.0547
     85  CG        65.3720  -14.7190   52.5890 C.ar  234  PHE234     -0.0202
     86  CD1       65.9470  -13.4700   52.8080 C.ar  234  PHE234     -0.0042
     87  CD2       66.2040  -15.8300   52.5070 C.ar  234  PHE234     -0.0042
     88  CE1       67.3080  -13.3350   52.9440 C.ar  234  PHE234     -0.0003
     89  CE2       67.5740  -15.7060   52.6410 C.ar  234  PHE234     -0.0003
     90  CZ        68.1320  -14.4530   52.8620 C.ar  234  PHE234     -0.0000
     91  N         62.7450  -12.2110   51.5170 N.am  235  ASN235     -0.1960
     92  CA        62.8860  -10.7710   51.3470 C.3   235  ASN235      0.1819
     93  C         62.7100  -10.0640   52.6780 C.2   235  ASN235      0.2622
     94  O         61.9910  -10.5370   53.5600 O.2   235  ASN235     -0.2715
     95  CB        61.8460  -10.2410   50.3490 C.3   235  ASN235      0.1195
     96  CG        60.4420  -10.2050   50.9290 C.2   235  ASN235      0.2630
     97  OD1       59.7490  -11.2230   50.9550 O.2   235  ASN235     -0.2716
     98  ND2       60.0150   -9.0280   51.4100 N.am  235  ASN235     -0.0877
     99  N         63.3780   -8.9270   52.8160 N.am  236  GLY236     -0.1940
    100  CA        63.0090   -7.9760   53.8470 C.3   236  GLY236      0.2014
    101  C         62.6570   -6.6580   53.1790 C.2   236  GLY236      0.2639
    102  O         62.0160   -6.6390   52.1280 O.2   236  GLY236     -0.2714
    103  N         63.0730   -5.5510   53.7850 N.am  237  TRP237     -0.1959
    104  CA        62.9890   -4.2530   53.1240 C.3   237  TRP237      0.1771
    105  C         64.3240   -3.5310   53.2690 C.2   237  TRP237      0.2620
    106  O         65.1800   -3.9480   54.0520 O.2   237  TRP237     -0.2715
    107  CB        61.8510   -3.4120   53.7240 C.3   237  TRP237      0.0590
    108  CG        61.9010   -3.2800   55.2200 C.ar  237  TRP237      0.0006
    109  CD1       62.8040   -2.5610   55.9530 C.ar  237  TRP237      0.0946
    110  CD2       61.0210   -3.9020   56.1690 C.ar  237  TRP237      0.0152
    111  NE1       62.5440   -2.7000   57.2960 N.ar  237  TRP237     -0.2442
    112  CE2       61.4550   -3.5160   57.4570 C.ar  237  TRP237      0.0810
    113  CE3       59.9110   -4.7470   56.0550 C.ar  237  TRP237      0.0012
    114  CZ2       60.8180   -3.9480   58.6220 C.ar  237  TRP237      0.0191
    115  CZ3       59.2790   -5.1760   57.2140 C.ar  237  TRP237      0.0001
    116  CH2       59.7360   -4.7760   58.4830 C.ar  237  TRP237      0.0015
    117  N         64.5050   -2.4540   52.5100 N.am  238  TYR238     -0.1960
    118  CA        65.7780   -1.7500   52.5010 C.3   238  TYR238      0.1771
    119  C         66.0880   -1.0960   53.8420 C.2   238  TYR238      0.2619
    120  O         65.1850   -0.7940   54.6200 O.2   238  TYR238     -0.2715
    121  CB        65.7860   -0.6890   51.4010 C.3   238  TYR238      0.0574
    122  CG        65.9270   -1.2630   50.0140 C.ar  238  TYR238     -0.0198
    123  CD1       67.1660   -1.6610   49.5330 C.ar  238  TYR238     -0.0009
    124  CD2       64.8260   -1.3960   49.1810 C.ar  238  TYR238     -0.0009
    125  CE1       67.3040   -2.1760   48.2560 C.ar  238  TYR238      0.0417
    126  CE2       64.9560   -1.9090   47.9070 C.ar  238  TYR238      0.0417
    127  CZ        66.1970   -2.2970   47.4500 C.ar  238  TYR238      0.1957
    128  OH        66.3290   -2.8050   46.1800 O.3   238  TYR238     -0.2866
    129  N         67.3730   -0.8870   54.1050 N.am  239  MET239     -0.1977
    130  CA        67.8060   -0.1570   55.2920 C.3   239  MET239      0.1605
    131  C         67.5850    1.3450   55.1340 C.2   239  MET239      0.2287
    132  O         68.4960    2.0780   54.7490 O.2   239  MET239     -0.2864
    133  CB        69.2850   -0.4280   55.5650 C.3   239  MET239      0.0413
    134  CG        69.5510   -1.7610   56.2430 C.3   239  MET239      0.0598
    135  SD        68.8680   -1.8290   57.9140 S.3   239  MET239     -0.1393
    136  CE        69.8390   -0.5690   58.7360 C.3   239  MET239      0.0692
@<TRIPOS>BOND
     1    27    28    1
     2    30    29    2
     3    29    28    1
     4    28    31    1
     5    19    18    2
     6    31    32    1
     7    18    17    1
     8    32    33   ar
     9    32    34   ar
    10    17    16    1
    11    17    20    1
    12    20    21    1
    13    21    22    1
    14    47    45   ar
    15    47    48   ar
    16    35    36    1
    17    22    23    1
    18    45    42   ar
    19    55    57   ar
    20    55    54   ar
    21    23    24    2
    22    10     9    2
    23    48    46   ar
    24    36    37    1
    25    36    39    1
    26    57    59   ar
    27    53    54    1
    28    53    50    1
    29    37    49   am
    30    37    38    2
    31    49    50    1
    32    54    56   ar
    33    24    26    1
    34    24    25    1
    35    42    44   ar
    36    42    40   ar
    37    50    51    1
    38    46    44   ar
    39     9     8    1
    40    39    40    1
    41    59    60    1
    42    59    58   ar
    43     7     8    1
    44    44    43   ar
    45    40    41   ar
    46    56    58   ar
    47     8    11    1
    48    11    12    1
    49    51    52    2
    50    43    41   ar
    51    15    13   am
    52    13    14    2
    53    13    12    1
    54   128   127    1
    55    71    70    2
    56    72    69    1
    57   127   126   ar
    58   127   125   ar
    59    70    69    1
    60    70    73   am
    61    68    69    1
    62    68    63   am
    63    75    74    1
    64    75    76    2
    65   126   124   ar
    66    61    62    1
    67    61    67    1
    68    62    63    1
    69    62    65    1
    70   125   123   ar
    71    74    73    1
    72    74    77    1
    73    63    64    2
    74    65    66    1
    75   124   122   ar
    76    67    66    1
    77    78    77    1
    78   123   122   ar
    79    77    79    1
    80    83    82    2
    81   122   121    1
    82    80    81    1
    83    95    96    1
    84    95    92    1
    85    82    81    1
    86    82    91   am
    87    96    97    2
    88    96    98   am
    89    81    84    1
    90    92    91    1
    91    92    93    1
    92   121   118    1
    93   102   101    2
    94    84    85    1
    95   118   117    1
    96   118   119    1
    97    87    85   ar
    98    87    89   ar
    99   117   105   am
   100    85    86   ar
   101    89    90   ar
   102    93    99   am
   103    93    94    2
   104    86    88   ar
   105    99   100    1
   106    90    88   ar
   107   104   105    1
   108   104   107    1
   109   104   103    1
   110   101   103   am
   111   101   100    1
   112   105   106    2
   113   107   108    1
   114   119   129   am
   115   119   120    2
   116   129   130    1
   117   132   131    2
   118   131   130    1
   119   108   109   ar
   120   108   110   ar
   121   130   133    1
   122   133   134    1
   123   109   111   ar
   124   113   110   ar
   125   113   115   ar
   126   110   112   ar
   127   134   135    1
   128   115   116   ar
   129   111   112   ar
   130   112   114   ar
   131   135   136    1
   132     6     5    1
   133   116   114   ar
   134     5     2    1
   135     2     1    1
   136     2     3    1
   137     3     4    2
