@<TRIPOS>MOLECULE
tmp/2ortA01.pdb
 132 134 0 0 0
SMALL
GASTEIGER

@<TRIPOS>ATOM
      1  N         72.1330   -9.6460   59.0660 N.3    81  CYS81      -0.1235
      2  CA        70.8210   -9.0880   58.7700 C.3    81  CYS81       0.1677
      3  C         70.2950   -8.1780   59.8680 C.2    81  CYS81       0.2270
      4  O         69.9820   -8.6280   60.9640 O.2    81  CYS81      -0.2867
      5  CB        69.7920  -10.1840   58.5170 C.3    81  CYS81       0.0956
      6  SG        68.2280   -9.4990   57.8720 S.3    81  CYS81      -0.0801
      7  N         68.9200  -12.1080   42.9950 N.3   144  GLN144     -0.1245
      8  CA        67.6850  -11.5350   43.5220 C.3   144  GLN144      0.1566
      9  C         66.5300  -11.7720   42.5640 C.2   144  GLN144      0.2260
     10  O         66.7440  -11.9990   41.3650 O.2   144  GLN144     -0.2867
     11  CB        67.8200  -10.0310   43.7280 C.3   144  GLN144      0.0367
     12  CG        68.8950   -9.6120   44.6910 C.3   144  GLN144      0.0905
     13  CD        69.1240   -8.1170   44.6420 C.2   144  GLN144      0.2608
     14  OE1       70.2580   -7.6550   44.6880 O.2   144  GLN144     -0.2717
     15  NE2       68.0400   -7.3510   44.5380 N.am  144  GLN144     -0.0878
     16  N         66.1130   -7.5600   39.6220 N.3   147  ARG147     -0.1245
     17  CA        67.4230   -6.9490   39.4490 C.3   147  ARG147      0.1563
     18  C         67.4800   -6.4330   38.0200 C.2   147  ARG147      0.2260
     19  O         66.8970   -7.0430   37.1260 O.2   147  ARG147     -0.2867
     20  CB        68.5130   -8.0000   39.6700 C.3   147  ARG147      0.0307
     21  CG        69.9140   -7.4440   39.7900 C.3   147  ARG147      0.0489
     22  CD        70.1880   -6.9750   41.2020 C.3   147  ARG147      0.2205
     23  NE        71.5800   -6.5770   41.3990 N.pl3 147  ARG147     -0.0865
     24  CZ        72.4840   -7.3080   42.0450 C.cat 147  ARG147      0.5346
     25  NH1       72.1510   -8.4860   42.5580 N.pl3 147  ARG147      0.1354
     26  NH2       73.7210   -6.8520   42.1960 N.pl3 147  ARG147      0.1354
     27  N         64.4060    2.9360   40.5690 N.3   215  TRP215     -0.1227
     28  CA        64.9030    1.7120   41.1810 C.3   215  TRP215      0.1737
     29  C         63.7380    0.8800   41.7150 C.2   215  TRP215      0.2595
     30  O         62.6700    1.4130   42.0220 O.2   215  TRP215     -0.2718
     31  CB        65.8680    2.0580   42.3170 C.3   215  TRP215      0.0564
     32  CG        66.8210    0.9530   42.6610 C.ar  215  TRP215      0.0003
     33  CD1       66.7900    0.1580   43.7700 C.ar  215  TRP215      0.0946
     34  CD2       67.9570    0.5300   41.8940 C.ar  215  TRP215      0.0152
     35  NE1       67.8380   -0.7340   43.7430 N.ar  215  TRP215     -0.2442
     36  CE2       68.5680   -0.5260   42.6030 C.ar  215  TRP215      0.0810
     37  CE3       68.5160    0.9420   40.6790 C.ar  215  TRP215      0.0012
     38  CZ2       69.7100   -1.1750   42.1350 C.ar  215  TRP215      0.0191
     39  CZ3       69.6500    0.2960   40.2170 C.ar  215  TRP215      0.0001
     40  CH2       70.2340   -0.7520   40.9440 C.ar  215  TRP215      0.0015
     41  N         63.9420   -0.4280   41.8230 N.am  216  TYR216     -0.1976
     42  CA        62.8720   -1.3170   42.2520 C.3   216  TYR216      0.1639
     43  C         62.7120   -1.3100   43.7680 C.2   216  TYR216      0.2290
     44  O         63.6840   -1.1650   44.5060 O.2   216  TYR216     -0.2864
     45  CB        63.1290   -2.7430   41.7480 C.3   216  TYR216      0.0560
     46  CG        64.5240   -3.2640   42.0180 C.ar  216  TYR216     -0.0198
     47  CD1       65.5510   -3.0650   41.0980 C.ar  216  TYR216     -0.0009
     48  CD2       64.8130   -3.9630   43.1840 C.ar  216  TYR216     -0.0009
     49  CE1       66.8260   -3.5510   41.3310 C.ar  216  TYR216      0.0417
     50  CE2       66.0850   -4.4530   43.4250 C.ar  216  TYR216      0.0417
     51  CZ        67.0880   -4.2450   42.4930 C.ar  216  TYR216      0.1957
     52  OH        68.3510   -4.7460   42.7190 O.3   216  TYR216     -0.2866
     53  N         63.5610   -5.6870   47.5800 N.3   219  PRO219     -0.2102
     54  CA        64.8380   -6.3970   47.6600 C.3   219  PRO219      0.1504
     55  C         64.6530   -7.8420   48.1220 C.2   219  PRO219      0.2576
     56  O         64.3170   -8.0990   49.2780 O.2   219  PRO219     -0.2718
     57  CB        65.6420   -5.5570   48.6440 C.3   219  PRO219      0.0282
     58  CG        64.6080   -4.9600   49.5510 C.3   219  PRO219      0.0208
     59  CD        63.3150   -4.8530   48.7690 C.3   219  PRO219      0.0893
     60  N         64.8640   -8.7840   47.2090 N.am  220  ALA220     -0.1966
     61  CA        64.5650  -10.1760   47.4980 C.3   220  ALA220      0.1728
     62  C         65.7190  -11.1120   47.1420 C.2   220  ALA220      0.2616
     63  O         66.0950  -11.2440   45.9730 O.2   220  ALA220     -0.2715
     64  CB        63.2960  -10.5900   46.7550 C.3   220  ALA220      0.0334
     65  N         66.2660  -11.7830   48.1520 N.am  221  VAL221     -0.1977
     66  CA        67.3610  -12.7130   47.9380 C.3   221  VAL221      0.1596
     67  C         66.8330  -14.0170   47.3750 C.2   221  VAL221      0.2287
     68  O         65.9590  -14.6510   47.9670 O.2   221  VAL221     -0.2864
     69  CB        68.1060  -12.9990   49.2560 C.3   221  VAL221      0.0276
     70  CG1       69.2030  -14.0240   49.0280 C.3   221  VAL221      0.0022
     71  CG2       68.6910  -11.7040   49.8030 C.3   221  VAL221      0.0022
     72  N         63.5390  -15.1210   49.6850 N.3   238  PHE238     -0.1227
     73  CA        62.9310  -14.3220   50.7380 C.3   238  PHE238      0.1736
     74  C         63.1820  -12.8440   50.4650 C.2   238  PHE238      0.2595
     75  O         64.0580  -12.4890   49.6840 O.2   238  PHE238     -0.2718
     76  CB        63.5210  -14.7090   52.1020 C.3   238  PHE238      0.0547
     77  CG        65.0050  -14.4750   52.2130 C.ar  238  PHE238     -0.0202
     78  CD1       65.5120  -13.1950   52.4220 C.ar  238  PHE238     -0.0042
     79  CD2       65.8990  -15.5340   52.1220 C.ar  238  PHE238     -0.0042
     80  CE1       66.8790  -12.9800   52.5380 C.ar  238  PHE238     -0.0003
     81  CE2       67.2680  -15.3250   52.2380 C.ar  238  PHE238     -0.0003
     82  CZ        67.7580  -14.0430   52.4470 C.ar  238  PHE238     -0.0000
     83  N         62.4180  -11.9730   51.1100 N.am  239  ASN239     -0.1960
     84  CA        62.6460  -10.5440   50.9360 C.3   239  ASN239      0.1819
     85  C         62.4560   -9.7940   52.2400 C.2   239  ASN239      0.2622
     86  O         61.7590  -10.2580   53.1480 O.2   239  ASN239     -0.2715
     87  CB        61.6730   -9.9690   49.9140 C.3   239  ASN239      0.1195
     88  CG        60.2780   -9.8680   50.4620 C.2   239  ASN239      0.2630
     89  OD1       59.5290  -10.8410   50.4550 O.2   239  ASN239     -0.2716
     90  ND2       59.9270   -8.6940   50.9770 N.am  239  ASN239     -0.0877
     91  N         63.0670   -8.6190   52.3100 N.am  240  GLY240     -0.1940
     92  CA        62.7250   -7.6650   53.3440 C.3   240  GLY240      0.2014
     93  C         62.3630   -6.3580   52.6780 C.2   240  GLY240      0.2639
     94  O         61.6550   -6.3430   51.6730 O.2   240  GLY240     -0.2714
     95  N         62.8450   -5.2570   53.2450 N.am  241  TRP241     -0.1959
     96  CA        62.7640   -3.9560   52.5960 C.3   241  TRP241      0.1771
     97  C         64.1020   -3.2380   52.7690 C.2   241  TRP241      0.2620
     98  O         64.9470   -3.6750   53.5470 O.2   241  TRP241     -0.2715
     99  CB        61.6230   -3.1300   53.2030 C.3   241  TRP241      0.0590
    100  CG        61.6560   -3.0280   54.7120 C.ar  241  TRP241      0.0006
    101  CD1       62.5260   -2.2960   55.4650 C.ar  241  TRP241      0.0946
    102  CD2       60.7720   -3.6760   55.6360 C.ar  241  TRP241      0.0152
    103  NE1       62.2410   -2.4460   56.7990 N.ar  241  TRP241     -0.2442
    104  CE2       61.1690   -3.2870   56.9330 C.ar  241  TRP241      0.0810
    105  CE3       59.6880   -4.5470   55.4930 C.ar  241  TRP241      0.0012
    106  CZ2       60.5190   -3.7380   58.0820 C.ar  241  TRP241      0.0191
    107  CZ3       59.0420   -4.9990   56.6330 C.ar  241  TRP241      0.0001
    108  CH2       59.4600   -4.5920   57.9140 C.ar  241  TRP241      0.0015
    109  N         64.2920   -2.1440   52.0400 N.am  242  TYR242     -0.1960
    110  CA        65.5630   -1.4310   52.0550 C.3   242  TYR242      0.1771
    111  C         65.8730   -0.7840   53.3950 C.2   242  TYR242      0.2619
    112  O         64.9710   -0.4710   54.1680 O.2   242  TYR242     -0.2715
    113  CB        65.5810   -0.3570   50.9710 C.3   242  TYR242      0.0574
    114  CG        65.6630   -0.9190   49.5790 C.ar  242  TYR242     -0.0198
    115  CD1       66.7960   -1.5970   49.1550 C.ar  242  TYR242     -0.0009
    116  CD2       64.6090   -0.7790   48.6880 C.ar  242  TYR242     -0.0009
    117  CE1       66.8770   -2.1210   47.8820 C.ar  242  TYR242      0.0417
    118  CE2       64.6830   -1.3010   47.4140 C.ar  242  TYR242      0.0417
    119  CZ        65.8190   -1.9700   47.0190 C.ar  242  TYR242      0.1957
    120  OH        65.9000   -2.5010   45.7540 O.3   242  TYR242     -0.2866
    121  N         67.1640   -0.5970   53.6520 N.am  243  MET243     -0.1963
    122  CA        67.6460    0.2050   54.7720 C.3   243  MET243      0.1736
    123  C         67.6290    1.6840   54.4090 C.2   243  MET243      0.2617
    124  O         67.1820    2.5280   55.1960 O.2   243  MET243     -0.2715
    125  CB        69.0760   -0.1990   55.1260 C.3   243  MET243      0.0427
    126  CG        69.1860   -1.5480   55.7950 C.3   243  MET243      0.0599
    127  SD        68.4220   -1.5120   57.4140 S.3   243  MET243     -0.1393
    128  CE        69.2490   -0.0980   58.1540 C.3   243  MET243      0.0692
    129  N         68.1200    1.9860   53.2090 N.am  244  GLY244     -0.1955
    130  CA        68.2180    3.3630   52.7630 C.3   244  GLY244      0.1869
    131  C         69.6350    3.7350   52.3680 C.2   244  GLY244      0.2309
    132  O         70.5880    3.4460   53.0950 O.2   244  GLY244     -0.2863
@<TRIPOS>BOND
     1    19    18    2
     2    18    17    1
     3    17    16    1
     4    17    20    1
     5    20    21    1
     6    21    22    1
     7    39    37   ar
     8    39    40   ar
     9    27    28    1
    10    37    34   ar
    11    40    38   ar
    12    47    49   ar
    13    47    46   ar
    14    28    29    1
    15    28    31    1
    16    22    23    1
    17    49    51   ar
    18    10     9    2
    19    23    24    2
    20    29    41   am
    21    29    30    2
    22    45    46    1
    23    45    42    1
    24    41    42    1
    25    34    36   ar
    26    34    32   ar
    27    46    48   ar
    28    24    26    1
    29    24    25    1
    30    38    36   ar
    31    42    43    1
    32    31    32    1
    33    51    52    1
    34    51    50   ar
    35     9     8    1
    36    36    35   ar
    37    32    33   ar
    38     7     8    1
    39    48    50   ar
    40     8    11    1
    41    11    12    1
    42    35    33   ar
    43    43    44    2
    44    15    13   am
    45    13    14    2
    46    13    12    1
    47   120   119    1
    48    63    62    2
    49    64    61    1
    50   119   118   ar
    51   119   117   ar
    52    62    61    1
    53    62    65   am
    54    60    61    1
    55    60    55   am
    56    67    66    1
    57    67    68    2
    58   118   116   ar
    59    53    54    1
    60    53    59    1
    61    54    55    1
    62    54    57    1
    63   117   115   ar
    64    66    65    1
    65    66    69    1
    66    55    56    2
    67    57    58    1
    68   116   114   ar
    69    59    58    1
    70    70    69    1
    71   115   114   ar
    72    69    71    1
    73   114   113    1
    74    75    74    2
    75    72    73    1
    76    87    88    1
    77    87    84    1
    78    89    88    2
    79    88    90   am
    80    74    73    1
    81    74    83   am
    82    73    76    1
    83    84    83    1
    84    84    85    1
    85   113   110    1
    86    94    93    2
    87   109   110    1
    88   109    97   am
    89   110   111    1
    90    76    77    1
    91    79    77   ar
    92    79    81   ar
    93    77    78   ar
    94    81    82   ar
    95    85    91   am
    96    85    86    2
    97    91    92    1
    98   131   130    1
    99   131   132    2
   100    78    80   ar
   101    82    80   ar
   102    96    97    1
   103    96    99    1
   104    96    95    1
   105    93    95   am
   106    93    92    1
   107   130   129    1
   108    97    98    2
   109    99   100    1
   110   129   123   am
   111   111   121   am
   112   111   112    2
   113   121   122    1
   114   123   122    1
   115   123   124    2
   116   100   101   ar
   117   100   102   ar
   118   122   125    1
   119   125   126    1
   120   101   103   ar
   121   105   102   ar
   122   105   107   ar
   123   102   104   ar
   124   126   127    1
   125   107   108   ar
   126   103   104   ar
   127   104   106   ar
   128   127   128    1
   129     6     5    1
   130   108   106   ar
   131     5     2    1
   132     2     1    1
   133     2     3    1
   134     3     4    2
