@<TRIPOS>MOLECULE
tmp/2orvA00.pdb
 223 216 0 0 0
SMALL
GASTEIGER

@<TRIPOS>ATOM
      1  N         33.4000   12.5590   63.2610 N.3    11  MET11      -0.1230
      2  CA        33.4790   12.1980   64.6720 C.3    11  MET11       0.1702
      3  C         32.9390   10.7570   64.8100 C.2    11  MET11       0.2592
      4  O         32.1600   10.3330   63.9490 O.2    11  MET11      -0.2718
      5  CB        32.6020   13.1420   65.5040 C.3    11  MET11       0.0401
      6  CG        33.2620   14.4900   65.8000 C.3    11  MET11       0.0596
      7  SD        32.2950   15.5670   66.9070 S.3    11  MET11      -0.1393
      8  CE        32.4220   14.7210   68.4710 C.3    11  MET11       0.0692
      9  N         33.3390   10.0500   65.8840 N.am   12  PHE12      -0.1962
     10  CA        32.9160    8.6830   66.1710 C.3    12  PHE12       0.1771
     11  C         33.3950    7.6170   65.1930 C.2    12  PHE12       0.2620
     12  O         32.8150    6.5520   65.1400 O.2    12  PHE12      -0.2715
     13  CB        31.3910    8.5990   66.3750 C.3    12  PHE12       0.0574
     14  CG        30.8570    9.7180   67.2380 C.ar   12  PHE12      -0.0200
     15  CD1       30.0700   10.7430   66.6780 C.ar   12  PHE12      -0.0042
     16  CD2       31.2170    9.8030   68.5900 C.ar   12  PHE12      -0.0042
     17  CE1       29.6080   11.8200   67.4690 C.ar   12  PHE12      -0.0003
     18  CE2       30.7910   10.8870   69.4000 C.ar   12  PHE12      -0.0003
     19  CZ        29.9700   11.8880   68.8430 C.ar   12  PHE12      -0.0000
     20  N         34.4250    7.8930   64.3990 N.am   13  SER13      -0.1936
     21  CA        34.8760    6.8980   63.4420 C.3    13  SER13       0.2055
     22  C         36.1310    6.1530   63.8980 C.2    13  SER13       0.2644
     23  O         36.6570    5.3190   63.1430 O.2    13  SER13      -0.2714
     24  CB        35.1450    7.5420   62.0970 C.3    13  SER13       0.2130
     25  OG        36.0960    8.5790   62.2210 O.3    13  SER13      -0.2179
     26  N         36.6300    6.4400   65.0960 N.am   14  GLY14      -0.1939
     27  CA        37.7870    5.7030   65.6490 C.3    14  GLY14       0.2014
     28  C         39.1570    6.1930   65.2050 C.2    14  GLY14       0.2639
     29  O         40.1600    5.4440   65.2820 O.2    14  GLY14      -0.2714
     30  N         39.2410    7.4440   64.7610 N.am   15  LYS15      -0.1963
     31  CA        40.5240    8.0030   64.2760 C.3    15  LYS15       0.1728
     32  C         41.6690    7.8990   65.2580 C.2    15  LYS15       0.2617
     33  O         42.8280    7.7270   64.8470 O.2    15  LYS15      -0.2715
     34  CB        40.3700    9.4590   63.8150 C.3    15  LYS15       0.0311
     35  CG        39.0830    9.7270   62.9180 C.3    15  LYS15       0.0038
     36  CD        38.9960   11.1950   62.5080 C.3    15  LYS15       0.0206
     37  CE        38.6160   12.0760   63.6910 C.3    15  LYS15       0.1093
     38  NZ        37.2360   11.6780   64.1120 N.3    15  LYS15      -0.1314
     39  N         41.3480    7.9980   66.5550 N.am   16  SER16      -0.1936
     40  CA        42.3260    7.9490   67.6410 C.3    16  SER16       0.2055
     41  C         42.8100    6.5290   67.8680 C.2    16  SER16       0.2643
     42  O         44.0000    6.3200   68.1310 O.2    16  SER16      -0.2714
     43  CB        41.7030    8.4020   68.9660 C.3    16  SER16       0.2130
     44  OG        41.8000    9.7800   69.0880 O.3    16  SER16      -0.2179
     45  N         41.8810    5.5800   67.8330 N.am   17  THR17      -0.1950
     46  CA        42.2330    4.1870   67.9530 C.3    17  THR17       0.1897
     47  C         43.1710    3.7790   66.8220 C.2    17  THR17       0.2313
     48  O         44.2590    3.2280   67.0860 O.2    17  THR17      -0.2863
     49  CB        41.0210    3.2830   67.9190 C.3    17  THR17       0.1794
     50  OG1       40.1200    3.6850   68.9550 O.3    17  THR17      -0.2208
     51  CG2       41.4530    1.8560   68.1410 C.3    17  THR17       0.0378
     52  N         40.8490   19.7240   74.8160 N.3    41  ASP41      -0.1239
     53  CA        39.8450   18.6790   74.7230 C.3    41  ASP41       0.1674
     54  C         40.0930   17.6220   75.7830 C.2    41  ASP41       0.2266
     55  O         40.8170   16.6390   75.5620 O.2    41  ASP41      -0.2867
     56  CB        39.7630   18.0590   73.3250 C.3    41  ASP41       0.1410
     57  CG        38.4580   17.2650   73.1020 C.2    41  ASP41       0.3668
     58  OD1       37.9420   16.6330   74.0500 O.co2  41  ASP41      -0.2456
     59  OD2       37.9400   17.2690   71.9680 O.co2  41  ASP41      -0.2456
     60  N         37.7460   15.4940   77.5000 N.3    43  ARG43      -0.1245
     61  CA        36.4960   14.7970   77.7540 C.3    43  ARG43       0.1563
     62  C         36.7390   13.2760   77.8370 C.2    43  ARG43       0.2260
     63  O         35.7950   12.4890   77.9370 O.2    43  ARG43      -0.2867
     64  CB        35.4050   15.2390   76.7420 C.3    43  ARG43       0.0307
     65  CG        35.5820   14.7280   75.3530 C.3    43  ARG43       0.0489
     66  CD        35.0700   15.6610   74.2680 C.3    43  ARG43       0.2205
     67  NE        35.8540   15.3620   73.0590 N.pl3  43  ARG43      -0.0865
     68  CZ        35.6210   14.3580   72.2030 C.cat  43  ARG43       0.5346
     69  NH1       34.5670   13.5360   72.3410 N.pl3  43  ARG43       0.1354
     70  NH2       36.4480   14.1810   71.1830 N.pl3  43  ARG43       0.1354
     71  N         46.9650   13.6900   67.7270 N.3    69  ASP69      -0.1225
     72  CA        45.5450   13.5350   67.8370 C.3    69  ASP69       0.1805
     73  C         44.8480   14.8860   67.6370 C.2    69  ASP69       0.2597
     74  O         45.4720   15.9460   67.7680 O.2    69  ASP69      -0.2718
     75  CB        45.1640   12.9140   69.1690 C.3    69  ASP69       0.1424
     76  CG        43.7110   12.4320   69.1720 C.2    69  ASP69       0.3668
     77  OD1       43.3590   11.6840   68.2430 O.co2  69  ASP69      -0.2456
     78  OD2       42.9080   12.7990   70.0670 O.co2  69  ASP69      -0.2456
     79  N         43.5620   14.8320   67.2790 N.am   70  GLU70      -0.1979
     80  CA        42.7260   16.0250   66.9240 C.3    70  GLU70       0.1602
     81  C         43.4370   17.1210   66.1230 C.2    70  GLU70       0.2287
     82  O         43.3090   18.3040   66.4350 O.2    70  GLU70      -0.2864
     83  CB        42.0830   16.6340   68.1690 C.3    70  GLU70       0.0415
     84  CG        41.3000   15.6580   69.0440 C.3    70  GLU70       0.1163
     85  CD        40.2370   16.3410   69.8990 C.2    70  GLU70       0.3649
     86  OE1       40.2670   17.5740   70.0120 O.co2  70  GLU70      -0.2457
     87  OE2       39.3430   15.6520   70.4460 O.co2  70  GLU70      -0.2457
     88  N         43.1440   18.9130   63.7070 N.3    72  GLN72      -0.1231
     89  CA        42.4620   20.0620   63.1270 C.3    72  GLN72       0.1698
     90  C         42.5720   21.3020   64.0090 C.2    72  GLN72       0.2592
     91  O         42.2680   22.4280   63.5610 O.2    72  GLN72      -0.2718
     92  CB        40.9860   19.7630   62.8430 C.3    72  GLN72       0.0381
     93  CG        40.1010   19.5630   64.0820 C.3    72  GLN72       0.0905
     94  CD        40.1580   18.1260   64.6230 C.2    72  GLN72       0.2608
     95  OE1       40.8870   17.3060   64.0980 O.2    72  GLN72      -0.2717
     96  NE2       39.3730   17.8340   65.6540 N.am   72  GLN72      -0.0878
     97  N         42.9610   21.0920   65.2670 N.am   73  PHE73      -0.1976
     98  CA        43.0030   22.1900   66.2230 C.3    73  PHE73       0.1639
     99  C         44.3490   22.9270   66.2590 C.2    73  PHE73       0.2290
    100  O         44.4460   23.9740   66.8750 O.2    73  PHE73      -0.2864
    101  CB        42.5170   21.7360   67.5850 C.3    73  PHE73       0.0560
    102  CG        41.0080   21.6110   67.6810 C.ar   73  PHE73      -0.0200
    103  CD1       40.4220   20.4470   68.1450 C.ar   73  PHE73      -0.0042
    104  CD2       40.1750   22.6710   67.3120 C.ar   73  PHE73      -0.0042
    105  CE1       39.0250   20.3230   68.2350 C.ar   73  PHE73      -0.0003
    106  CE2       38.7370   22.5630   67.4140 C.ar   73  PHE73      -0.0003
    107  CZ        38.1820   21.4010   67.8780 C.ar   73  PHE73      -0.0000
    108  N         45.7690   11.9280   63.2440 N.3    94  ALA94      -0.1231
    109  CA        44.3170   11.7700   63.2680 C.3    94  ALA94       0.1694
    110  C         43.7600   13.1730   63.2580 C.2    94  ALA94       0.2592
    111  O         44.3130   14.0590   63.9170 O.2    94  ALA94      -0.2718
    112  CB        43.8570   11.0300   64.5170 C.3    94  ALA94       0.0304
    113  N         42.6860   13.3770   62.5030 N.am   95  ALA95      -0.1966
    114  CA        42.0410   14.6890   62.3670 C.3    95  ALA95       0.1728
    115  C         40.7230   14.5390   61.6210 C.2    95  ALA95       0.2616
    116  O         40.5780   13.7060   60.7350 O.2    95  ALA95      -0.2715
    117  CB        42.9340   15.6600   61.5960 C.3    95  ALA95       0.0334
    118  N         39.7930   15.3960   61.9830 N.am   96  LEU96      -0.1977
    119  CA        38.5390   15.5870   61.2950 C.3    96  LEU96       0.1596
    120  C         38.8160   16.3890   60.0310 C.2    96  LEU96       0.2287
    121  O         39.4980   17.4390   60.0620 O.2    96  LEU96      -0.2864
    122  CB        37.6720   16.4620   62.1860 C.3    96  LEU96       0.0297
    123  CG        36.3980   16.0860   62.8800 C.3    96  LEU96       0.0022
    124  CD1       36.1970   14.6350   62.9960 C.3    96  LEU96       0.0001
    125  CD2       36.3190   16.7820   64.2260 C.3    96  LEU96       0.0001
    126  N         36.2010   17.6950   57.9400 N.3    98  GLY98      -0.1210
    127  CA        35.2370   18.7830   57.9050 C.3    98  GLY98       0.1956
    128  C         34.6150   19.2140   59.2430 C.2    98  GLY98       0.2613
    129  O         34.4450   18.4180   60.1710 O.2    98  GLY98      -0.2717
    130  N         34.2530   20.4920   59.3140 N.am   99  THR99      -0.1938
    131  CA        33.4920   21.0570   60.4230 C.3    99  THR99       0.2028
    132  C         32.0700   20.4990   60.4200 C.2    99  THR99       0.2642
    133  O         31.7450   19.5920   59.6350 O.2    99  THR99      -0.2714
    134  CB        33.4400   22.6100   60.3470 C.3    99  THR99       0.1808
    135  OG1       32.6050   23.0200   59.2440 O.3    99  THR99      -0.2208
    136  CG2       34.8440   23.2090   60.1670 C.3    99  THR99       0.0379
    137  N         31.2360   21.0390   61.3090 N.am  100  PHE100     -0.1973
    138  CA        29.8100   20.6700   61.4250 C.3   100  PHE100      0.1639
    139  C         29.0420   21.1450   60.1740 C.2   100  PHE100      0.2290
    140  O         27.8710   20.7960   59.9610 O.2   100  PHE100     -0.2864
    141  CB        29.2100   21.2980   62.7190 C.3   100  PHE100      0.0560
    142  CG        29.0290   22.8110   62.6470 C.ar  100  PHE100     -0.0200
    143  CD1       27.7670   23.3660   62.4700 C.ar  100  PHE100     -0.0042
    144  CD2       30.1190   23.6730   62.7370 C.ar  100  PHE100     -0.0042
    145  CE1       27.5960   24.7510   62.3920 C.ar  100  PHE100     -0.0003
    146  CE2       29.9600   25.0820   62.6440 C.ar  100  PHE100     -0.0003
    147  CZ        28.6950   25.6100   62.4760 C.ar  100  PHE100     -0.0000
    148  N         38.5140   21.9070   57.9990 N.3   105  PHE105     -0.1241
    149  CA        38.6670   22.1760   59.4300 C.3   105  PHE105      0.1605
    150  C         40.1100   22.5150   59.6570 C.2   105  PHE105      0.2264
    151  O         40.9760   21.6430   59.6210 O.2   105  PHE105     -0.2867
    152  CB        38.3230   20.9330   60.2400 C.3   105  PHE105      0.0534
    153  CG        37.8680   21.2040   61.6610 C.ar  105  PHE105     -0.0203
    154  CD1       36.9360   20.3640   62.2580 C.ar  105  PHE105     -0.0042
    155  CD2       38.3910   22.2710   62.4140 C.ar  105  PHE105     -0.0042
    156  CE1       36.5380   20.5720   63.5710 C.ar  105  PHE105     -0.0003
    157  CE2       37.9930   22.4950   63.7210 C.ar  105  PHE105     -0.0003
    158  CZ        37.0610   21.6510   64.3020 C.ar  105  PHE105     -0.0000
    159  N         29.7840   14.9680   60.2470 N.3   135  THR135     -0.1218
    160  CA        29.3120   15.3070   61.5870 C.3   135  THR135      0.1862
    161  C         28.3300   16.5090   61.5660 C.2   135  THR135      0.2287
    162  O         28.6640   17.5670   61.0480 O.2   135  THR135     -0.2866
    163  CB        30.4910   15.6600   62.5520 C.3   135  THR135      0.1770
    164  OG1       31.6010   14.7880   62.3210 O.3   135  THR135     -0.2211
    165  CG2       30.0330   15.5280   64.0080 C.3   135  THR135      0.0375
    166  N         26.0500   19.1990   63.9870 N.3   137  ARG137     -0.1245
    167  CA        25.8990   19.8230   65.3190 C.3   137  ARG137      0.1563
    168  C         24.4120   19.8680   65.6850 C.2   137  ARG137      0.2260
    169  O         23.6010   20.4020   64.9230 O.2   137  ARG137     -0.2867
    170  CB        26.4940   21.2240   65.3060 C.3   137  ARG137      0.0307
    171  CG        26.4390   21.9920   66.6190 C.3   137  ARG137      0.0489
    172  CD        27.1430   23.3280   66.4700 C.3   137  ARG137      0.2205
    173  NE        28.5800   23.1430   66.5730 N.pl3 137  ARG137     -0.0865
    174  CZ        29.5020   24.0900   66.4460 C.cat 137  ARG137      0.5346
    175  NH1       29.1840   25.3510   66.2070 N.pl3 137  ARG137      0.1354
    176  NH2       30.7680   23.7630   66.5600 N.pl3 137  ARG137      0.1354
    177  N         33.1500   27.8230   65.1150 N.3   144  VAL144     -0.1231
    178  CA        33.7050   26.5490   64.6690 C.3   144  VAL144      0.1692
    179  C         34.0030   25.6270   65.8740 C.2   144  VAL144      0.2592
    180  O         33.4560   24.5140   65.9270 O.2   144  VAL144     -0.2718
    181  CB        34.8910   26.7450   63.6760 C.3   144  VAL144      0.0266
    182  CG1       35.9390   25.6390   63.7870 C.3   144  VAL144      0.0020
    183  CG2       34.3590   26.8510   62.2540 C.3   144  VAL144      0.0020
    184  N         34.7820   26.1180   66.8580 N.am  145  GLU145     -0.1966
    185  CA        35.2590   25.2960   68.0050 C.3   145  GLU145      0.1733
    186  C         34.2840   25.2180   69.1770 C.2   145  GLU145      0.2616
    187  O         34.0810   26.1700   69.8910 O.2   145  GLU145     -0.2715
    188  CB        36.6920   25.6970   68.4750 C.3   145  GLU145      0.0429
    189  CG        37.1920   24.9660   69.7480 C.3   145  GLU145      0.1163
    190  CD        38.6930   25.0830   69.9880 C.2   145  GLU145      0.3649
    191  OE1       39.1810   24.6210   71.0500 O.co2 145  GLU145     -0.2457
    192  OE2       39.4090   25.6220   69.1140 O.co2 145  GLU145     -0.2457
    193  N         33.6760   24.0580   69.3420 N.am  146  VAL146     -0.1963
    194  CA        32.8640   23.7460   70.4790 C.3   146  VAL146      0.1727
    195  C         33.2190   22.3050   70.8320 C.2   146  VAL146      0.2616
    196  O         32.7850   21.3660   70.1680 O.2   146  VAL146     -0.2715
    197  CB        31.3610   23.9080   70.1760 C.3   146  VAL146      0.0290
    198  CG1       30.4910   23.3690   71.3230 C.3   146  VAL146      0.0023
    199  CG2       31.0250   25.3630   69.8890 C.3   146  VAL146      0.0023
    200  N         34.0580   22.1520   71.8610 N.am  147  ILE147     -0.1963
    201  CA        34.4320   20.8430   72.4000 C.3   147  ILE147      0.1727
    202  C         33.1710   20.1490   72.9030 C.2   147  ILE147      0.2616
    203  O         32.3530   20.7820   73.5320 O.2   147  ILE147     -0.2715
    204  CB        35.5090   20.9840   73.5380 C.3   147  ILE147      0.0290
    205  CG1       36.7450   21.7850   73.0620 C.3   147  ILE147      0.0022
    206  CG2       35.8470   19.6200   74.2150 C.3   147  ILE147      0.0023
    207  CD1       37.4440   21.2920   71.8000 C.3   147  ILE147      0.0001
    208  N         33.0060   18.8650   72.5850 N.am  148  GLY148     -0.1955
    209  CA        31.8460   18.0690   73.0090 C.3   148  GLY148      0.1869
    210  C         31.7910   16.6980   72.3450 C.2   148  GLY148      0.2309
    211  O         32.6040   16.3920   71.4590 O.2   148  GLY148     -0.2863
    212  N         26.9290   16.5360   69.1870 N.3   153  TYR153     -0.1241
    213  CA        27.1220   16.1400   67.7840 C.3   153  TYR153      0.1605
    214  C         26.5980   14.7350   67.4320 C.2   153  TYR153      0.2264
    215  O         26.6130   13.8290   68.2690 O.2   153  TYR153     -0.2867
    216  CB        28.5950   16.1530   67.4580 C.3   153  TYR153      0.0534
    217  CG        29.3050   17.4780   67.5880 C.ar  153  TYR153     -0.0201
    218  CD1       29.9880   17.8230   68.7580 C.ar  153  TYR153     -0.0009
    219  CD2       29.3460   18.3650   66.5260 C.ar  153  TYR153     -0.0009
    220  CE1       30.6700   19.0440   68.8600 C.ar  153  TYR153      0.0417
    221  CE2       30.0360   19.5750   66.6250 C.ar  153  TYR153      0.0417
    222  CZ        30.6870   19.8940   67.7830 C.ar  153  TYR153      0.1957
    223  OH        31.3490   21.0770   67.8360 O.3   153  TYR153     -0.2866
@<TRIPOS>BOND
     1   127   126    1
     2   127   128    1
     3   148   149    1
     4   128   130   am
     5   128   129    2
     6   135   134    1
     7   130   131    1
     8   149   150    1
     9   149   152    1
    10   151   150    2
    11   133   132    2
    12   140   139    2
    13   120   121    2
    14   120   119    1
    15   136   134    1
    16   139   138    1
    17   152   153    1
    18   159   160    1
    19   134   131    1
    20   132   131    1
    21   132   137   am
    22   116   115    2
    23   162   161    2
    24   119   118    1
    25   119   122    1
    26   137   138    1
    27   138   141    1
    28   161   160    1
    29   160   163    1
    30   117   114    1
    31   115   118   am
    32   115   114    1
    33   153   154   ar
    34   153   155   ar
    35    24    25    1
    36    24    21    1
    37   122   123    1
    38   183   181    1
    39   154   156   ar
    40   164   163    1
    41   114   113    1
    42   145   143   ar
    43   145   147   ar
    44   155   157   ar
    45   143   142   ar
    46   147   146   ar
    47   113   110   am
    48    36    35    1
    49    36    37    1
    50   163   165    1
    51   146   144   ar
    52   142   141    1
    53   142   144   ar
    54    92    89    1
    55    92    93    1
    56   123   124    1
    57   123   125    1
    58    35    34    1
    59    89    88    1
    60    89    90    1
    61    23    22    2
    62   108   109    1
    63   110   109    1
    64   110   111    2
    65     1     2    1
    66   109   112    1
    67    21    22    1
    68    21    20    1
    69    91    90    2
    70   156   158   ar
    71   181   182    1
    72   181   178    1
    73    37    38    1
    74   157   158   ar
    75    34    31    1
    76    22    26   am
    77     4     3    2
    78   166   167    1
    79    90    97   am
    80    93    94    1
    81    95    94    2
    82    31    30    1
    83    31    32    1
    84    20    11   am
    85    94    96   am
    86   178   177    1
    87   178   179    1
    88     2     3    1
    89     2     5    1
    90    30    28   am
    91     3     9   am
    92    33    32    2
    93   169   168    2
    94    26    27    1
    95    12    11    2
    96    11    10    1
    97    28    29    2
    98    28    27    1
    99    32    39   am
   100    97    98    1
   101   170   167    1
   102   170   171    1
   103   167   168    1
   104     5     6    1
   105     6     7    1
   106   179   180    2
   107   179   184   am
   108     9    10    1
   109    81    82    2
   110    81    80    1
   111    10    13    1
   112   175   174    1
   113    98    99    1
   114    98   101    1
   115    99   100    2
   116    13    14    1
   117   174   176    1
   118   174   173    2
   119   172   173    1
   120   172   171    1
   121   219   221   ar
   122   219   217   ar
   123    39    40    1
   124   221   222   ar
   125    15    14   ar
   126    15    17   ar
   127    47    48    2
   128    47    46    1
   129   184   185    1
   130     7     8    1
   131    80    79    1
   132    80    83    1
   133    14    16   ar
   134    79    73   am
   135   104   106   ar
   136   104   102   ar
   137   106   107   ar
   138   214   213    1
   139   214   215    2
   140   216   217    1
   141   216   213    1
   142    17    19   ar
   143   101   102    1
   144   217   218   ar
   145    73    74    2
   146    73    72    1
   147    40    41    1
   148    40    43    1
   149   102   103   ar
   150    71    72    1
   151   222   223    1
   152   222   220   ar
   153   213   212    1
   154    45    41   am
   155    45    46    1
   156    72    75    1
   157    41    42    2
   158   107   105   ar
   159    49    46    1
   160    49    51    1
   161    49    50    1
   162   185   188    1
   163   185   186    1
   164   103   105   ar
   165    83    84    1
   166    77    76   ar
   167   188   189    1
   168    16    18   ar
   169   218   220   ar
   170    19    18   ar
   171    43    44    1
   172    84    85    1
   173   192   190   ar
   174    75    76    1
   175    76    78   ar
   176   186   193   am
   177   186   187    2
   178   193   194    1
   179   189   190    1
   180   199   197    1
   181    85    86   ar
   182    85    87   ar
   183   190   191   ar
   184   196   195    2
   185   197   194    1
   186   197   198    1
   187   194   195    1
   188   195   200   am
   189    70    68    1
   190   211   210    2
   191   207   205    1
   192   200   201    1
   193    59    57   ar
   194    68    69    1
   195    68    67    2
   196   210   209    1
   197   201   202    1
   198   201   204    1
   199   208   202   am
   200   208   209    1
   201   202   203    2
   202    67    66    1
   203   205   204    1
   204    57    56    1
   205    57    58   ar
   206    56    53    1
   207   204   206    1
   208    66    65    1
   209    53    52    1
   210    53    54    1
   211    65    64    1
   212    55    54    2
   213    64    61    1
   214    60    61    1
   215    61    62    1
   216    62    63    2
