@<TRIPOS>MOLECULE
tmp/2os1A00.pdb
 151 145 0 0 0
SMALL
GASTEIGER

@<TRIPOS>ATOM
      1  N         21.3080   48.6340   33.8480 N.3    56  ARG56      -0.1231
      2  CA        19.9170   49.0610   33.7940 C.3    56  ARG56       0.1694
      3  C         19.2890   48.0250   32.8710 C.2    56  ARG56       0.2593
      4  O         19.9030   47.6350   31.8780 O.2    56  ARG56      -0.2718
      5  CB        19.7750   50.4450   33.1480 C.3    56  ARG56       0.0321
      6  CG        20.1190   51.6300   34.0330 C.3    56  ARG56       0.0489
      7  CD        19.8930   52.9490   33.2810 C.3    56  ARG56       0.2205
      8  NE        18.4910   53.1500   32.9110 N.pl3  56  ARG56      -0.0865
      9  CZ        18.0550   54.1170   32.1050 C.cat  56  ARG56       0.5346
     10  NH1       18.9070   54.9810   31.5690 N.pl3  56  ARG56       0.1354
     11  NH2       16.7600   54.2270   31.8370 N.pl3  56  ARG56       0.1354
     12  N         18.0830   47.5730   33.1920 N.am   57  GLY57      -0.1942
     13  CA        17.4280   46.5880   32.3520 C.3    57  GLY57       0.2014
     14  C         17.0510   47.1390   30.9880 C.2    57  GLY57       0.2639
     15  O         16.6350   48.2930   30.8670 O.2    57  GLY57      -0.2714
     16  N         17.2050   46.3160   29.9570 N.am   58  GLY58      -0.1939
     17  CA        16.8590   46.7440   28.6130 C.3    58  GLY58       0.2014
     18  C         16.3700   45.5730   27.7840 C.2    58  GLY58       0.2639
     19  O         16.7900   44.4390   28.0170 O.2    58  GLY58      -0.2714
     20  N         15.4800   45.8360   26.8280 N.am   59  VAL59      -0.1963
     21  CA        14.9520   44.7830   25.9620 C.3    59  VAL59       0.1727
     22  C         15.4130   44.9690   24.5210 C.2    59  VAL59       0.2616
     23  O         15.0760   44.1740   23.6430 O.2    59  VAL59      -0.2715
     24  CB        13.4050   44.7340   25.9910 C.3    59  VAL59       0.0290
     25  CG1       12.9220   44.3650   27.3900 C.3    59  VAL59       0.0023
     26  CG2       12.8280   46.0760   25.5640 C.3    59  VAL59       0.0023
     27  N         16.1890   46.0220   24.2880 N.am   60  GLY60      -0.1955
     28  CA        16.7010   46.2990   22.9580 C.3    60  GLY60       0.1869
     29  C         17.9450   47.1610   23.0480 C.2    60  GLY60       0.2309
     30  O         18.1530   47.8480   24.0430 O.2    60  GLY60      -0.2863
     31  N         24.3790   53.2460   20.0950 N.3    65  GLN65      -0.1245
     32  CA        24.4160   53.4740   21.5390 C.3    65  GLN65       0.1566
     33  C         25.7500   53.0610   22.1580 C.2    65  GLN65       0.2260
     34  O         26.0210   53.3630   23.3190 O.2    65  GLN65      -0.2867
     35  CB        23.2710   52.7210   22.2210 C.3    65  GLN65       0.0367
     36  CG        21.8950   53.2890   21.9150 C.3    65  GLN65       0.0905
     37  CD        20.7990   52.4950   22.5800 C.2    65  GLN65       0.2608
     38  OE1       20.3830   51.4540   22.0780 O.2    65  GLN65      -0.2717
     39  NE2       20.3400   52.9720   23.7300 N.am   65  GLN65      -0.0878
     40  N          3.0040   52.5340   24.5430 N.3    99  LEU99      -0.1245
     41  CA         3.1020   51.9270   25.8630 C.3    99  LEU99       0.1561
     42  C          2.4680   52.8830   26.8640 C.2    99  LEU99       0.2260
     43  O          2.7770   54.0750   26.8730 O.2    99  LEU99      -0.2867
     44  CB         4.5610   51.6870   26.2430 C.3    99  LEU99       0.0270
     45  CG         5.3320   50.6530   25.4270 C.3    99  LEU99       0.0019
     46  CD1        6.7060   50.4900   26.0410 C.3    99  LEU99       0.0001
     47  CD2        4.5940   49.3220   25.4200 C.3    99  LEU99       0.0001
     48  N          2.9700   53.2850   29.9620 N.3   101  GLU101     -0.1231
     49  CA         3.9370   53.8880   30.8720 C.3   101  GLU101      0.1699
     50  C          4.9880   54.7410   30.1700 C.2   101  GLU101      0.2593
     51  O          5.9420   55.1990   30.8020 O.2   101  GLU101     -0.2718
     52  CB         4.6270   52.8010   31.7030 C.3   101  GLU101      0.0402
     53  CG         4.9780   51.5350   30.9360 C.3   101  GLU101      0.1161
     54  CD         3.7750   50.6280   30.7200 C.2   101  GLU101      0.3649
     55  OE1        3.1880   50.1640   31.7220 O.co2 101  GLU101     -0.2457
     56  OE2        3.4140   50.3790   29.5500 O.co2 101  GLU101     -0.2457
     57  N          4.8070   54.9680   28.8730 N.am  102  GLY102     -0.1942
     58  CA         5.7700   55.7600   28.1290 C.3   102  GLY102      0.2014
     59  C          6.9900   54.9180   27.8140 C.2   102  GLY102      0.2639
     60  O          6.9290   53.6950   27.8830 O.2   102  GLY102     -0.2714
     61  N          8.1160   55.5550   27.4500 N.am  103  GLU103     -0.1963
     62  CA         9.3540   54.8400   27.1130 C.3   103  GLU103      0.1733
     63  C         10.5370   55.4320   27.9260 C.2   103  GLU103      0.2617
     64  O         10.4860   56.5050   28.3890 O.2   103  GLU103     -0.2715
     65  CB         9.6530   54.8290   25.5800 C.3   103  GLU103      0.0429
     66  CG         8.6120   54.0640   24.7850 C.3   103  GLU103      0.1163
     67  CD         8.9580   53.8990   23.3140 C.2   103  GLU103      0.3649
     68  OE1       10.1020   54.1530   22.9550 O.co2 103  GLU103     -0.2457
     69  OE2        8.0540   53.5830   22.5750 O.co2 103  GLU103     -0.2457
     70  N         11.5680   54.6130   28.0680 N.am  104  GLY104     -0.1940
     71  CA        12.8720   55.1080   28.4570 C.3   104  GLY104      0.2014
     72  C         13.9640   54.5040   27.5520 C.2   104  GLY104      0.2639
     73  O         13.6840   53.8220   26.6430 O.2   104  GLY104     -0.2714
     74  N         15.1980   54.7840   27.8810 N.am  105  CYS105     -0.1953
     75  CA        16.2800   54.4740   27.0150 C.3   105  CYS105      0.1843
     76  C         17.5830   54.4690   27.7950 C.2   105  CYS105      0.2625
     77  O         17.8060   55.3190   28.5340 O.2   105  CYS105     -0.2714
     78  CB        16.3000   55.6010   25.9750 C.3   105  CYS105      0.0997
     79  SG        17.4560   55.3130   24.5880 S.3   105  CYS105     -0.0797
     80  N         18.4350   53.4990   27.5200 N.am  106  LEU106     -0.1977
     81  CA        19.6520   53.3470   28.2810 C.3   106  LEU106      0.1596
     82  C         20.6150   54.5070   28.0750 C.2   106  LEU106      0.2287
     83  O         21.5070   54.6790   28.8450 O.2   106  LEU106     -0.2864
     84  CB        20.3380   52.0440   27.8230 C.3   106  LEU106      0.0297
     85  CG        19.5710   50.7540   28.1050 C.3   106  LEU106      0.0022
     86  CD1       20.1140   49.5830   27.2740 C.3   106  LEU106      0.0001
     87  CD2       19.6060   50.5270   29.4930 C.3   106  LEU106      0.0001
     88  N          4.0100   44.9260   21.5530 N.3   141  TYR141     -0.1241
     89  CA         5.2620   45.2660   22.2230 C.3   141  TYR141      0.1605
     90  C          6.5020   44.9760   21.3790 C.2   141  TYR141      0.2264
     91  O          7.4130   45.8030   21.3090 O.2   141  TYR141     -0.2867
     92  CB         5.3380   44.5320   23.5660 C.3   141  TYR141      0.0534
     93  CG         6.4980   44.9280   24.4550 C.ar  141  TYR141     -0.0201
     94  CD1        6.8570   46.2670   24.6250 C.ar  141  TYR141     -0.0009
     95  CD2        7.1980   43.9650   25.1740 C.ar  141  TYR141     -0.0009
     96  CE1        7.8870   46.6310   25.4990 C.ar  141  TYR141      0.0417
     97  CE2        8.2220   44.3150   26.0480 C.ar  141  TYR141      0.0417
     98  CZ         8.5610   45.6470   26.2080 C.ar  141  TYR141      0.1957
     99  OH         9.5570   45.9870   27.0960 O.3   141  TYR141     -0.2866
    100  N          6.9480   47.6330   18.8950 N.3   144  ILE144     -0.1231
    101  CA         7.3760   48.8610   19.5490 C.3   144  ILE144      0.1692
    102  C          8.8830   48.8450   19.7920 C.2   144  ILE144      0.2591
    103  O          9.5840   49.8070   19.4770 O.2   144  ILE144     -0.2718
    104  CB         6.6320   49.0540   20.8920 C.3   144  ILE144      0.0266
    105  CG1        5.1640   49.3910   20.6160 C.3   144  ILE144      0.0019
    106  CG2        7.2890   50.1550   21.7080 C.3   144  ILE144      0.0020
    107  CD1        4.3270   49.5960   21.8670 C.3   144  ILE144      0.0001
    108  N          9.3830   47.7430   20.3410 N.am  145  VAL145     -0.1980
    109  CA        10.8080   47.6230   20.6210 C.3   145  VAL145      0.1595
    110  C         11.6450   47.7630   19.3540 C.2   145  VAL145      0.2287
    111  O         12.6240   48.5110   19.3210 O.2   145  VAL145     -0.2864
    112  CB        11.1310   46.2650   21.2890 C.3   145  VAL145      0.0276
    113  CG1       12.6370   46.1250   21.4880 C.3   145  VAL145      0.0022
    114  CG2       10.4120   46.1620   22.6270 C.3   145  VAL145      0.0022
    115  N         11.7650   51.2600   18.1120 N.3   148  HIS148     -0.1226
    116  CA        12.5960   52.0670   18.9980 C.3   148  HIS148      0.1752
    117  C         14.0630   51.9010   18.5760 C.2   148  HIS148      0.2595
    118  O         14.8070   52.8790   18.4840 O.2   148  HIS148     -0.2718
    119  CB        12.3990   51.6010   20.4510 C.3   148  HIS148      0.0759
    120  CG        13.2320   52.3350   21.4590 C.ar  148  HIS148      0.0818
    121  ND1       12.6790   53.1320   22.4390 N.ar  148  HIS148     -0.2268
    122  CD2       14.5690   52.3430   21.6790 C.ar  148  HIS148      0.1154
    123  CE1       13.6380   53.5940   23.2230 C.ar  148  HIS148      0.1986
    124  NE2       14.7940   53.1300   22.7840 N.ar  148  HIS148     -0.2212
    125  N         14.4760   50.6650   18.3080 N.am  149  GLU149     -0.1979
    126  CA        15.8600   50.4180   17.9120 C.3   149  GLU149      0.1602
    127  C         16.1740   50.9040   16.4990 C.2   149  GLU149      0.2287
    128  O         17.2540   51.4410   16.2500 O.2   149  GLU149     -0.2864
    129  CB        16.1980   48.9290   18.0320 C.3   149  GLU149      0.0415
    130  CG        16.0090   48.3360   19.4250 C.3   149  GLU149      0.1163
    131  CD        16.5830   49.2000   20.5320 C.2   149  GLU149      0.3649
    132  OE1       17.6280   49.8500   20.3140 O.co2 149  GLU149     -0.2457
    133  OE2       15.9870   49.2160   21.6300 O.co2 149  GLU149     -0.2457
    134  N         16.9550   54.4200   16.4400 N.3   152  HIS152     -0.1241
    135  CA        18.3340   54.7000   16.8270 C.3   152  HIS152      0.1621
    136  C         19.2970   54.7070   15.6510 C.2   152  HIS152      0.2264
    137  O         20.2100   55.5310   15.6050 O.2   152  HIS152     -0.2867
    138  CB        18.8410   53.6790   17.8470 C.3   152  HIS152      0.0745
    139  CG        18.5330   54.0300   19.2670 C.ar  152  HIS152      0.0817
    140  ND1       18.8200   55.2650   19.8090 N.ar  152  HIS152     -0.2268
    141  CD2       18.0050   53.2920   20.2700 C.ar  152  HIS152      0.1154
    142  CE1       18.4810   55.2720   21.0860 C.ar  152  HIS152      0.1986
    143  NE2       17.9850   54.0860   21.3910 N.ar  152  HIS152     -0.2212
    144  N          2.1600   46.9970   30.4690 N.3   179  LEU179     -0.1245
    145  CA         3.0600   45.9370   30.8740 C.3   179  LEU179      0.1561
    146  C          2.9720   45.5930   32.3600 C.2   179  LEU179      0.2260
    147  O          3.2890   44.4840   32.7310 O.2   179  LEU179     -0.2867
    148  CB         4.4980   46.3570   30.5700 C.3   179  LEU179      0.0270
    149  CG         4.8690   46.6080   29.1220 C.3   179  LEU179      0.0019
    150  CD1        6.3160   46.6940   29.0660 C.3   179  LEU179      0.0001
    151  CD2        4.3680   45.4700   28.1520 C.3   179  LEU179      0.0001
@<TRIPOS>BOND
     1   137   136    2
     2   136   135    1
     3   128   127    2
     4   134   135    1
     5   127   126    1
     6   135   138    1
     7   138   139    1
     8   126   129    1
     9   126   125    1
    10   129   130    1
    11   115   116    1
    12   125   117   am
    13   118   117    2
    14   117   116    1
    15   100   101    1
    16   116   119    1
    17   139   140   ar
    18   139   141   ar
    19   111   110    2
    20   110   109    1
    21   130   131    1
    22   103   102    2
    23   101   102    1
    24   101   104    1
    25   102   108   am
    26   140   142   ar
    27    31    32    1
    28   141   143   ar
    29   132   131   ar
    30   108   109    1
    31   119   120    1
    32   131   133   ar
    33   105   104    1
    34   105   107    1
    35   109   112    1
    36   104   106    1
    37   142   143   ar
    38   112   113    1
    39   112   114    1
    40    91    90    2
    41    90    89    1
    42   120   122   ar
    43   120   121   ar
    44    32    33    1
    45    32    35    1
    46    88    89    1
    47   122   124   ar
    48    36    35    1
    49    36    37    1
    50    38    37    2
    51    33    34    2
    52    89    92    1
    53   121   123   ar
    54    69    67   ar
    55    37    39   am
    56   124   123   ar
    57    68    67   ar
    58    28    29    1
    59    28    27    1
    60    29    30    2
    61    67    66    1
    62    92    93    1
    63    23    22    2
    64    27    22   am
    65    93    94   ar
    66    93    95   ar
    67    22    21    1
    68    40    41    1
    69    79    78    1
    70    94    96   ar
    71    66    65    1
    72    95    97   ar
    73    47    45    1
    74    45    46    1
    75    45    44    1
    76    96    98   ar
    77    26    24    1
    78    65    62    1
    79    41    44    1
    80    41    42    1
    81    21    24    1
    82    21    20    1
    83    78    75    1
    84    24    25    1
    85    97    98   ar
    86    98    99    1
    87    73    72    2
    88    20    18   am
    89    42    43    2
    90    75    76    1
    91    75    74    1
    92    62    61    1
    93    62    63    1
    94    86    85    1
    95    61    59   am
    96    80    76   am
    97    80    81    1
    98    72    74   am
    99    72    71    1
   100    18    19    2
   101    18    17    1
   102    76    77    2
   103    59    60    2
   104    59    58    1
   105    84    85    1
   106    84    81    1
   107    63    70   am
   108    63    64    2
   109    70    71    1
   110    82    81    1
   111    82    83    2
   112    85    87    1
   113    58    57    1
   114   151   149    1
   115    17    16    1
   116    57    50   am
   117   150   149    1
   118   149   148    1
   119    56    54   ar
   120    16    14   am
   121    48    49    1
   122    50    51    2
   123    50    49    1
   124   144   145    1
   125   148   145    1
   126    54    53    1
   127    54    55   ar
   128    15    14    2
   129    49    52    1
   130   145   146    1
   131    53    52    1
   132    14    13    1
   133    10     9    1
   134    11     9    1
   135     4     3    2
   136     9     8    2
   137    13    12    1
   138   146   147    2
   139     3    12   am
   140     3     2    1
   141     8     7    1
   142     5     2    1
   143     5     6    1
   144     7     6    1
   145     2     1    1
