@<TRIPOS>MOLECULE
tmp/2os3A00.pdb
 159 153 0 0 0
SMALL
GASTEIGER

@<TRIPOS>ATOM
      1  N        -22.3340  -91.1720   46.3220 N.3    67  ARG67      -0.1231
      2  CA       -22.1650  -91.5150   47.7240 C.3    67  ARG67       0.1694
      3  C        -23.3520  -90.8820   48.4360 C.2    67  ARG67       0.2592
      4  O        -23.6320  -89.7030   48.2280 O.2    67  ARG67      -0.2718
      5  CB       -20.8730  -90.9070   48.2650 C.3    67  ARG67       0.0321
      6  CG       -19.6300  -91.2360   47.4590 C.3    67  ARG67       0.0489
      7  CD       -18.4120  -90.5390   48.0470 C.3    67  ARG67       0.2205
      8  NE       -18.2440  -90.8440   49.4680 N.pl3  67  ARG67      -0.0865
      9  CZ       -17.3010  -90.3160   50.2450 C.cat  67  ARG67       0.5346
     10  NH1      -16.4280  -89.4490   49.7470 N.pl3  67  ARG67       0.1354
     11  NH2      -17.2310  -90.6540   51.5250 N.pl3  67  ARG67       0.1354
     12  N        -24.0590  -91.6540   49.2540 N.am   68  ALA68      -0.1966
     13  CA       -25.1990  -91.1130   49.9860 C.3    68  ALA68       0.1728
     14  C        -24.7230  -89.9210   50.8130 C.2    68  ALA68       0.2617
     15  O        -23.7720  -90.0280   51.5840 O.2    68  ALA68      -0.2715
     16  CB       -25.7970  -92.1710   50.8920 C.3    68  ALA68       0.0334
     17  N        -25.3770  -88.7810   50.6340 N.am   69  GLY69      -0.1940
     18  CA       -24.9940  -87.5880   51.3620 C.3    69  GLY69       0.2014
     19  C        -26.2070  -86.9360   51.9760 C.2    69  GLY69       0.2639
     20  O        -27.2990  -87.0350   51.4330 O.2    69  GLY69      -0.2714
     21  N        -26.0220  -86.2620   53.1050 N.am   70  VAL70      -0.1963
     22  CA       -27.1390  -85.6230   53.7800 C.3    70  VAL70       0.1727
     23  C        -27.0490  -84.1020   53.7700 C.2    70  VAL70       0.2617
     24  O        -27.8000  -83.4200   54.4670 O.2    70  VAL70      -0.2715
     25  CB       -27.2510  -86.1340   55.2330 C.3    70  VAL70       0.0290
     26  CG1      -27.5020  -87.6410   55.2210 C.3    70  VAL70       0.0023
     27  CG2      -25.9720  -85.8120   56.0070 C.3    70  VAL70       0.0023
     28  N        -26.1300  -83.5810   52.9630 N.am   71  GLY71      -0.1940
     29  CA       -25.9480  -82.1450   52.8490 C.3    71  GLY71       0.2014
     30  C        -24.9510  -81.8140   51.7490 C.2    71  GLY71       0.2638
     31  O        -24.1940  -82.6780   51.3150 O.2    71  GLY71      -0.2714
     32  N        -24.9490  -80.5670   51.2910 N.am   72  LEU72      -0.1977
     33  CA       -24.0250  -80.1330   50.2410 C.3    72  LEU72       0.1596
     34  C        -23.9620  -78.6060   50.2220 C.2    72  LEU72       0.2287
     35  O        -24.9690  -77.9390   50.4570 O.2    72  LEU72      -0.2864
     36  CB       -24.4900  -80.6440   48.8690 C.3    72  LEU72       0.0297
     37  CG       -23.5710  -80.3490   47.6760 C.3    72  LEU72       0.0022
     38  CD1      -22.3260  -81.2350   47.7500 C.3    72  LEU72       0.0001
     39  CD2      -24.3120  -80.6210   46.3760 C.3    72  LEU72       0.0001
     40  N        -18.5620  -76.8400   47.1610 N.3    76  GLN76      -0.1245
     41  CA       -18.2050  -78.2060   46.7920 C.3    76  GLN76       0.1566
     42  C        -18.4020  -78.5250   45.3120 C.2    76  GLN76       0.2260
     43  O        -17.8350  -79.4980   44.7970 O.2    76  GLN76      -0.2867
     44  CB       -18.9930  -79.1920   47.6330 C.3    76  GLN76       0.0367
     45  CG       -18.5120  -79.2640   49.0570 C.3    76  GLN76       0.0905
     46  CD       -19.4040  -80.1360   49.8940 C.2    76  GLN76       0.2608
     47  OE1      -20.4970  -79.7280   50.2660 O.2    76  GLN76      -0.2717
     48  NE2      -18.9570  -81.3530   50.1720 N.am   76  GLN76      -0.0878
     49  N        -20.6450  -87.1050   66.1310 N.3   124  LEU124     -0.1245
     50  CA       -21.1750  -88.3880   65.7110 C.3   124  LEU124      0.1561
     51  C        -20.1730  -89.4480   66.1710 C.2   124  LEU124      0.2260
     52  O        -18.9690  -89.3030   65.9590 O.2   124  LEU124     -0.2867
     53  CB       -21.3140  -88.4310   64.1900 C.3   124  LEU124      0.0270
     54  CG       -22.3370  -87.5060   63.5280 C.3   124  LEU124      0.0019
     55  CD1      -22.4180  -87.8550   62.0510 C.3   124  LEU124      0.0001
     56  CD2      -23.7050  -87.6690   64.1730 C.3   124  LEU124      0.0001
     57  N        -19.4620  -92.1670   64.9640 N.3   126  ASP126     -0.1225
     58  CA       -18.7490  -92.7290   63.8190 C.3   126  ASP126      0.1805
     59  C        -17.8890  -91.7300   63.0410 C.2   126  ASP126      0.2598
     60  O        -17.3400  -92.0700   61.9920 O.2   126  ASP126     -0.2718
     61  CB       -19.7510  -93.3820   62.8650 C.3   126  ASP126      0.1424
     62  CG       -20.3860  -94.6280   63.4510 C.2   126  ASP126      0.3668
     63  OD1      -21.5120  -94.9710   63.0370 O.co2 126  ASP126     -0.2456
     64  OD2      -19.7560  -95.2710   64.3180 O.co2 126  ASP126     -0.2456
     65  N        -17.7670  -90.5050   63.5460 N.am  127  GLY127     -0.1942
     66  CA       -16.9700  -89.5120   62.8460 C.3   127  GLY127      0.2014
     67  C        -17.7220  -88.9750   61.6450 C.2   127  GLY127      0.2639
     68  O        -18.9150  -89.2110   61.5120 O.2   127  GLY127     -0.2714
     69  N        -17.0430  -88.2530   60.7650 N.am  128  GLU128     -0.1963
     70  CA       -17.7070  -87.6970   59.5920 C.3   128  GLU128      0.1733
     71  C        -16.9560  -87.9780   58.2980 C.2   128  GLU128      0.2617
     72  O        -15.7480  -88.2210   58.2970 O.2   128  GLU128     -0.2715
     73  CB       -17.8890  -86.1800   59.7530 C.3   128  GLU128      0.0429
     74  CG       -18.9660  -85.7810   60.7580 C.3   128  GLU128      0.1163
     75  CD       -19.1400  -84.2700   60.8860 C.2   128  GLU128      0.3649
     76  OE1      -18.8870  -83.5450   59.8950 O.co2 128  GLU128     -0.2457
     77  OE2      -19.5510  -83.8120   61.9770 O.co2 128  GLU128     -0.2457
     78  N        -17.6980  -87.9540   57.1970 N.am  129  GLY129     -0.1940
     79  CA       -17.1200  -88.1630   55.8850 C.3   129  GLY129      0.2014
     80  C        -17.4960  -86.9520   55.0480 C.2   129  GLY129      0.2639
     81  O        -18.3690  -86.1800   55.4360 O.2   129  GLY129     -0.2714
     82  N        -16.8540  -86.7800   53.9010 N.am  130  CYS130     -0.1953
     83  CA       -17.1400  -85.6390   53.0400 C.3   130  CYS130      0.1843
     84  C        -16.7980  -86.0680   51.6120 C.2   130  CYS130      0.2625
     85  O        -15.6930  -86.5470   51.3680 O.2   130  CYS130     -0.2714
     86  CB       -16.2680  -84.4640   53.4840 C.3   130  CYS130      0.0997
     87  SG       -16.5040  -82.9270   52.6110 S.3   130  CYS130     -0.0797
     88  N        -17.7290  -85.9200   50.6700 N.am  131  LEU131     -0.1977
     89  CA       -17.4220  -86.3390   49.3050 C.3   131  LEU131      0.1596
     90  C        -16.3250  -85.5140   48.6520 C.2   131  LEU131      0.2287
     91  O        -15.7440  -85.9380   47.6580 O.2   131  LEU131     -0.2864
     92  CB       -18.6670  -86.3560   48.4040 C.3   131  LEU131      0.0297
     93  CG       -19.7130  -85.2480   48.4170 C.3   131  LEU131      0.0022
     94  CD1      -20.6990  -85.5510   49.5150 C.3   131  LEU131      0.0001
     95  CD2      -19.0720  -83.8800   48.5880 C.3   131  LEU131      0.0001
     96  N        -28.8470  -84.6630   65.0830 N.3   166  TYR166     -0.1241
     97  CA       -28.3260  -84.8520   63.7390 C.3   166  TYR166      0.1605
     98  C        -28.4560  -83.6010   62.8660 C.2   166  TYR166      0.2264
     99  O        -27.5440  -83.2740   62.1040 O.2   166  TYR166     -0.2867
    100  CB       -29.0360  -86.0500   63.0940 C.3   166  TYR166      0.0534
    101  CG       -28.3400  -86.6390   61.8880 C.ar  166  TYR166     -0.0201
    102  CD1      -27.0120  -86.3330   61.6010 C.ar  166  TYR166     -0.0009
    103  CD2      -29.0060  -87.5310   61.0440 C.ar  166  TYR166     -0.0009
    104  CE1      -26.3650  -86.8910   60.5110 C.ar  166  TYR166      0.0417
    105  CE2      -28.3620  -88.1010   59.9430 C.ar  166  TYR166      0.0417
    106  CZ       -27.0420  -87.7720   59.6860 C.ar  166  TYR166      0.1957
    107  OH       -26.3990  -88.3170   58.6050 O.3   166  TYR166     -0.2866
    108  N        -25.6700  -81.0850   63.6570 N.3   169  ILE169     -0.1231
    109  CA       -24.4040  -81.5880   63.1250 C.3   169  ILE169      0.1692
    110  C        -24.2950  -81.3080   61.6200 C.2   169  ILE169      0.2591
    111  O        -23.3270  -80.7120   61.1570 O.2   169  ILE169     -0.2718
    112  CB       -24.2650  -83.1170   63.3250 C.3   169  ILE169      0.0266
    113  CG1      -24.3360  -83.4800   64.8110 C.3   169  ILE169      0.0019
    114  CG2      -22.9390  -83.5900   62.7350 C.3   169  ILE169      0.0020
    115  CD1      -23.1350  -83.0200   65.6290 C.3   169  ILE169      0.0001
    116  N        -25.2910  -81.7460   60.8580 N.am  170  VAL170     -0.1980
    117  CA       -25.2840  -81.5420   59.4140 C.3   170  VAL170      0.1595
    118  C        -25.1840  -80.0660   59.0090 C.2   170  VAL170      0.2287
    119  O        -24.3460  -79.7150   58.1820 O.2   170  VAL170     -0.2864
    120  CB       -26.5510  -82.1590   58.7480 C.3   170  VAL170      0.0276
    121  CG1      -26.5110  -81.9390   57.2370 C.3   170  VAL170      0.0022
    122  CG2      -26.6370  -83.6480   59.0630 C.3   170  VAL170      0.0022
    123  N        -21.7370  -78.6820   59.4890 N.3   173  HIS173     -0.1226
    124  CA       -20.8010  -79.2620   58.5320 C.3   173  HIS173      0.1752
    125  C        -20.8930  -78.4690   57.2250 C.2   173  HIS173      0.2595
    126  O        -19.8730  -78.1790   56.5870 O.2   173  HIS173     -0.2718
    127  CB       -21.1560  -80.7300   58.2620 C.3   173  HIS173      0.0759
    128  CG       -20.2810  -81.3960   57.2420 C.ar  173  HIS173      0.0818
    129  ND1      -19.3260  -82.3310   57.5780 N.ar  173  HIS173     -0.2268
    130  CD2      -20.2290  -81.2760   55.8930 C.ar  173  HIS173      0.1154
    131  CE1      -18.7240  -82.7600   56.4820 C.ar  173  HIS173      0.1986
    132  NE2      -19.2520  -82.1360   55.4470 N.ar  173  HIS173     -0.2212
    133  N        -22.1210  -78.1240   56.8350 N.am  174  GLU174     -0.1979
    134  CA       -22.3380  -77.3800   55.5980 C.3   174  GLU174      0.1602
    135  C        -21.9190  -75.9270   55.7460 C.2   174  GLU174      0.2287
    136  O        -21.2740  -75.3730   54.8580 O.2   174  GLU174     -0.2864
    137  CB       -23.8080  -77.4490   55.1620 C.3   174  GLU174      0.0415
    138  CG       -24.2950  -78.8420   54.8020 C.3   174  GLU174      0.1163
    139  CD       -23.3210  -79.6050   53.9180 C.2   174  GLU174      0.3649
    140  OE1      -22.7850  -79.0060   52.9600 O.co2 174  GLU174     -0.2457
    141  OE2      -23.1000  -80.8100   54.1760 O.co2 174  GLU174     -0.2457
    142  N        -18.3360  -75.3900   55.2600 N.3   177  HIS177     -0.1241
    143  CA       -17.9160  -75.3500   53.8620 C.3   177  HIS177      0.1621
    144  C        -17.9170  -73.9490   53.2550 C.2   177  HIS177      0.2264
    145  O        -17.0340  -73.6100   52.4670 O.2   177  HIS177     -0.2867
    146  CB       -18.7990  -76.2580   53.0060 C.3   177  HIS177      0.0745
    147  CG       -18.3410  -77.6810   52.9550 C.ar  177  HIS177      0.0817
    148  ND1      -17.0710  -78.0430   52.5570 N.ar  177  HIS177     -0.2268
    149  CD2      -18.9970  -78.8380   53.2100 C.ar  177  HIS177      0.1154
    150  CE1      -16.9660  -79.3600   52.5680 C.ar  177  HIS177      0.1986
    151  NE2      -18.1210  -79.8670   52.9590 N.ar  177  HIS177     -0.2212
    152  N        -26.3650  -92.8500   65.5310 N.3   204  LEU204     -0.1245
    153  CA       -27.4860  -92.8200   64.6120 C.3   204  LEU204      0.1561
    154  C        -28.0100  -94.2390   64.4260 C.2   204  LEU204      0.2260
    155  O        -29.2050  -94.4390   64.2160 O.2   204  LEU204     -0.2867
    156  CB       -27.0520  -92.2230   63.2710 C.3   204  LEU204      0.0270
    157  CG       -26.6120  -90.7530   63.3170 C.3   204  LEU204      0.0019
    158  CD1      -26.0860  -90.3270   61.9540 C.3   204  LEU204      0.0001
    159  CD2      -27.7830  -89.8740   63.7320 C.3   204  LEU204      0.0001
@<TRIPOS>BOND
     1    43    42    2
     2    42    41    1
     3     1     2    1
     4    39    37    1
     5    41    40    1
     6    41    44    1
     7     6     7    1
     8     6     5    1
     9    44    45    1
    10    91    90    2
    11    37    38    1
    12    37    36    1
    13     2     5    1
    14     2     3    1
    15     7     8    1
    16     4     3    2
    17    92    93    1
    18    92    89    1
    19    93    95    1
    20    93    94    1
    21     3    12   am
    22    90    89    1
    23    36    33    1
    24    45    46    1
    25    12    13    1
    26    89    88    1
    27     8     9    2
    28    10     9    1
    29    46    48   am
    30    46    47    2
    31    13    14    1
    32    13    16    1
    33    34    33    1
    34    34    35    2
    35    33    32    1
    36     9    11    1
    37    17    14   am
    38    17    18    1
    39    88    84   am
    40    14    15    2
    41    32    30   am
    42    31    30    2
    43    18    19    1
    44    85    84    2
    45    20    19    2
    46    84    83    1
    47    30    29    1
    48    19    21   am
    49   145   144    2
    50   148   150   ar
    51   148   147   ar
    52   150   151   ar
    53    87    86    1
    54    29    28    1
    55   147   146    1
    56   147   149   ar
    57   151   149   ar
    58   140   139   ar
    59    28    23   am
    60   146   143    1
    61    83    86    1
    62    83    82    1
    63    21    22    1
    64   144   143    1
    65    23    22    1
    66    23    24    2
    67    22    25    1
    68   143   142    1
    69    82    80   am
    70   139   141   ar
    71   139   138    1
    72   138   137    1
    73   136   135    2
    74    80    81    2
    75    80    79    1
    76   137   134    1
    77    26    25    1
    78    25    27    1
    79   132   130   ar
    80   132   131   ar
    81   134   135    1
    82   134   133    1
    83    79    78    1
    84   130   128   ar
    85   131   129   ar
    86   126   125    2
    87   133   125   am
    88    78    71   am
    89   125   124    1
    90   121   120    1
    91   128   129   ar
    92   128   127    1
    93   119   118    2
    94   127   124    1
    95    72    71    2
    96    71    70    1
    97   124   123    1
    98   107   106    1
    99   120   122    1
   100   120   117    1
   101   118   117    1
   102   117   116    1
   103    70    73    1
   104    70    69    1
   105   106   105   ar
   106   106   104   ar
   107    73    74    1
   108    76    75   ar
   109   105   103   ar
   110   104   102   ar
   111    74    75    1
   112    69    67   am
   113   116   110   am
   114    75    77   ar
   115   103   101   ar
   116   111   110    2
   117    68    67    2
   118   102   101   ar
   119   110   109    1
   120    67    66    1
   121   101   100    1
   122   158   157    1
   123    60    59    2
   124    55    54    1
   125    99    98    2
   126   114   112    1
   127    66    65    1
   128    61    62    1
   129    61    58    1
   130    98    97    1
   131    63    62   ar
   132    59    65   am
   133    59    58    1
   134   100    97    1
   135   109   112    1
   136   109   108    1
   137   156   157    1
   138   156   153    1
   139   157   159    1
   140   112   113    1
   141    62    64   ar
   142    54    56    1
   143    54    53    1
   144    97    96    1
   145    58    57    1
   146    53    50    1
   147   155   154    2
   148   154   153    1
   149   153   152    1
   150   113   115    1
   151    50    49    1
   152    50    51    1
   153    52    51    2
