@<TRIPOS>MOLECULE
tmp/2os6A00.pdb
 134 130 0 0 0
SMALL
GASTEIGER

@<TRIPOS>ATOM
      1  N         -1.3550  -11.8780    2.6560 N.3    15  LYS15      -0.1245
      2  CA        -1.3390  -11.7720    4.1160 C.3    15  LYS15       0.1561
      3  C         -0.7080  -13.0160    4.7380 C.2    15  LYS15       0.2260
      4  O         -1.0860  -14.1430    4.4140 O.2    15  LYS15      -0.2867
      5  CB        -2.7570  -11.5740    4.6670 C.3    15  LYS15       0.0271
      6  CG        -2.8210  -11.4330    6.1870 C.3    15  LYS15       0.0035
      7  CD        -3.1210   -9.9990    6.6080 C.3    15  LYS15       0.0206
      8  CE        -4.5300   -9.8560    7.1730 C.3    15  LYS15       0.1093
      9  NZ        -5.5600  -10.4670    6.2830 N.3    15  LYS15      -0.1314
     10  N          2.8420  -12.6340    9.9220 N.3    18  ASN18      -0.1225
     11  CA         3.3350  -11.3240   10.3420 C.3    18  ASN18       0.1785
     12  C          2.6260  -10.1840    9.5930 C.2    18  ASN18       0.2598
     13  O          2.8690   -9.0080    9.8730 O.2    18  ASN18      -0.2718
     14  CB         4.8490  -11.2350   10.1240 C.3    18  ASN18       0.1169
     15  CG         5.4990  -10.2200   11.0450 C.2    18  ASN18       0.2627
     16  OD1        5.5280  -10.4030   12.2620 O.2    18  ASN18      -0.2716
     17  ND2        6.0200   -9.1390   10.4740 N.am   18  ASN18      -0.0877
     18  N          1.7500  -10.5330    8.6430 N.am   19  GLY19      -0.1942
     19  CA         1.0290   -9.5250    7.8820 C.3    19  GLY19       0.2014
     20  C          1.7850   -9.0730    6.6430 C.2    19  GLY19       0.2639
     21  O          2.6720   -9.7790    6.1610 O.2    19  GLY19      -0.2714
     22  N          1.4310   -7.8930    6.1280 N.am   20  PHE20      -0.1959
     23  CA         2.0850   -7.3470    4.9370 C.3    20  PHE20       0.1771
     24  C          3.5160   -6.9090    5.2500 C.2    20  PHE20       0.2620
     25  O          4.4480   -7.2480    4.5210 O.2    20  PHE20      -0.2715
     26  CB         1.2860   -6.1620    4.3770 C.3    20  PHE20       0.0574
     27  CG        -0.1290   -6.5020    3.9800 C.ar   20  PHE20      -0.0200
     28  CD1       -0.4060   -7.6360    3.2270 C.ar   20  PHE20      -0.0042
     29  CD2       -1.1800   -5.6820    4.3590 C.ar   20  PHE20      -0.0042
     30  CE1       -1.7050   -7.9390    2.8610 C.ar   20  PHE20      -0.0003
     31  CE2       -2.4790   -5.9830    3.9950 C.ar   20  PHE20      -0.0003
     32  CZ        -2.7420   -7.1120    3.2460 C.ar   20  PHE20      -0.0000
     33  N          3.6810   -6.1580    6.3410 N.am   21  GLY21      -0.1940
     34  CA         4.9970   -5.6850    6.7430 C.3    21  GLY21       0.2014
     35  C          5.5810   -4.6650    5.7810 C.2    21  GLY21       0.2639
     36  O          6.6260   -4.9080    5.1750 O.2    21  GLY21      -0.2714
     37  N          4.9100   -3.5220    5.6380 N.am   22  LEU22      -0.1963
     38  CA         5.3740   -2.4660    4.7410 C.3    22  LEU22       0.1728
     39  C          4.9570   -1.0830    5.2430 C.2    22  LEU22       0.2617
     40  O          3.8640   -0.9130    5.7900 O.2    22  LEU22      -0.2715
     41  CB         4.8310   -2.6880    3.3260 C.3    22  LEU22       0.0311
     42  CG         3.3100   -2.8560    3.2310 C.3    22  LEU22       0.0022
     43  CD1        2.6300   -1.5100    3.0200 C.3    22  LEU22       0.0001
     44  CD2        2.9480   -3.8210    2.1130 C.3    22  LEU22       0.0001
     45  N          5.8330   -0.0980    5.0410 N.am   23  THR23      -0.1937
     46  CA         5.5650    1.2770    5.4600 C.3    23  THR23       0.2028
     47  C          5.3480    2.1760    4.2440 C.2    23  THR23       0.2642
     48  O          6.1470    2.1630    3.3050 O.2    23  THR23      -0.2714
     49  CB         6.7220    1.8170    6.3070 C.3    23  THR23       0.1808
     50  OG1        7.2940    0.7900    7.1010 O.3    23  THR23      -0.2208
     51  CG2        6.3070    2.9390    7.2340 C.3    23  THR23       0.0379
     52  N          4.2620    2.9520    4.2630 N.am   24  VAL24      -0.1963
     53  CA         3.9430    3.8520    3.1520 C.3    24  VAL24       0.1727
     54  C          3.3270    5.1670    3.6480 C.2    24  VAL24       0.2617
     55  O          2.5570    5.1810    4.6110 O.2    24  VAL24      -0.2715
     56  CB         2.9940    3.1650    2.1440 C.3    24  VAL24       0.0290
     57  CG1        1.6560    2.8310    2.7900 C.3    24  VAL24       0.0023
     58  CG2        2.8050    4.0300    0.9100 C.3    24  VAL24       0.0023
     59  N          3.6830    6.2750    2.9920 N.am   25  SER25      -0.1936
     60  CA         3.1780    7.5930    3.3790 C.3    25  SER25       0.2055
     61  C          2.8600    8.4530    2.1560 C.2    25  SER25       0.2644
     62  O          3.3330    8.1810    1.0500 O.2    25  SER25      -0.2714
     63  CB         4.2030    8.3140    4.2670 C.3    25  SER25       0.2130
     64  OG         5.1340    7.4050    4.8340 O.3    25  SER25      -0.2179
     65  N          2.0580    9.4990    2.3690 N.am   26  GLY26      -0.1939
     66  CA         1.6860   10.4020    1.2880 C.3    26  GLY26       0.2014
     67  C          0.3280   10.0810    0.6880 C.2    26  GLY26       0.2638
     68  O         -0.1620    8.9580    0.8160 O.2    26  GLY26      -0.2714
     69  N         -0.2810   11.0700    0.0250 N.am   27  ASP27      -0.1971
     70  CA        -1.5900   10.8870   -0.6050 C.3    27  ASP27       0.1709
     71  C         -1.4540   10.7910   -2.1250 C.2    27  ASP27       0.2293
     72  O         -0.3360   10.7340   -2.6320 O.2    27  ASP27      -0.2864
     73  CB        -2.5420   12.0320   -0.2210 C.3    27  ASP27       0.1436
     74  CG        -1.9560   13.4170   -0.4620 C.2    27  ASP27       0.3671
     75  OD1       -1.4250   13.6610   -1.5660 O.co2  27  ASP27      -0.2456
     76  OD2       -2.0410   14.2610    0.4550 O.co2  27  ASP27      -0.2456
     77  N          7.6750    3.8800    1.8970 N.3    33  GLN33      -0.1245
     78  CA         8.8820    4.1820    2.6610 C.3    33  GLN33       0.1566
     79  C          9.8220    2.9740    2.7170 C.2    33  GLN33       0.2260
     80  O         10.9240    3.0160    2.1680 O.2    33  GLN33      -0.2867
     81  CB         8.5110    4.6340    4.0770 C.3    33  GLN33       0.0367
     82  CG         9.6600    5.2780    4.8370 C.3    33  GLN33       0.0905
     83  CD         9.8560    4.6780    6.2170 C.2    33  GLN33       0.2608
     84  OE1       10.7180    3.8210    6.4150 O.2    33  GLN33      -0.2717
     85  NE2        9.0570    5.1250    7.1790 N.am   33  GLN33      -0.0878
     86  N         -9.9470    8.1590    1.7420 N.3    64  ASN64      -0.1225
     87  CA        -9.2440    8.7790    2.8670 C.3    64  ASN64       0.1785
     88  C         -8.1990    7.8310    3.4600 C.2    64  ASN64       0.2597
     89  O         -8.0000    6.7230    2.9590 O.2    64  ASN64      -0.2718
     90  CB       -10.2450    9.2020    3.9490 C.3    64  ASN64       0.1169
     91  CG       -11.2300   10.2450    3.4510 C.2    64  ASN64       0.2627
     92  OD1      -12.4060    9.9520    3.2430 O.2    64  ASN64      -0.2716
     93  ND2      -10.7530   11.4710    3.2500 N.am   64  ASN64      -0.0877
     94  N         -7.5290    8.2750    4.5280 N.am   65  HIS65      -0.1975
     95  CA        -6.5020    7.4650    5.1860 C.3    65  HIS65       0.1656
     96  C         -7.0810    6.1270    5.6510 C.2    65  HIS65       0.2291
     97  O         -6.6970    5.0730    5.1500 O.2    65  HIS65      -0.2864
     98  CB        -5.8960    8.2380    6.3640 C.3    65  HIS65       0.0771
     99  CG        -4.9410    7.4370    7.1920 C.ar   65  HIS65       0.0820
    100  ND1       -5.3500    6.5210    8.1370 N.ar   65  HIS65      -0.2267
    101  CD2       -3.5880    7.4230    7.2170 C.ar   65  HIS65       0.1154
    102  CE1       -4.2930    5.9770    8.7060 C.ar   65  HIS65       0.1986
    103  NE2       -3.2090    6.5070    8.1660 N.ar   65  HIS65      -0.2212
    104  N         -8.3830    3.8160    2.6660 N.3    68  VAL68      -0.1231
    105  CA        -7.4120    2.9850    1.9530 C.3    68  VAL68       0.1692
    106  C         -6.9960    1.7830    2.8020 C.2    68  VAL68       0.2591
    107  O         -6.8380    0.6770    2.2830 O.2    68  VAL68      -0.2718
    108  CB        -6.1580    3.7890    1.5210 C.3    68  VAL68       0.0266
    109  CG1       -5.4260    4.3800    2.7200 C.3    68  VAL68       0.0020
    110  CG2       -5.2180    2.9190    0.6960 C.3    68  VAL68       0.0020
    111  N         -6.8410    2.0030    4.1110 N.am   69  VAL69      -0.1980
    112  CA        -6.4640    0.9300    5.0280 C.3    69  VAL69       0.1595
    113  C         -7.5360   -0.1580    5.0440 C.2    69  VAL69       0.2287
    114  O         -7.2310   -1.3440    4.9080 O.2    69  VAL69      -0.2864
    115  CB        -6.2500    1.4480    6.4710 C.3    69  VAL69       0.0276
    116  CG1       -5.6630    0.3550    7.3530 C.3    69  VAL69       0.0022
    117  CG2       -5.3580    2.6830    6.4820 C.3    69  VAL69       0.0022
    118  N         -7.4390   -2.1940    1.7890 N.3    72  ILE72      -0.1231
    119  CA        -6.3120   -3.1280    1.7570 C.3    72  ILE72       0.1692
    120  C         -6.5160   -4.2490    2.7760 C.2    72  ILE72       0.2591
    121  O         -6.2560   -5.4190    2.4850 O.2    72  ILE72      -0.2718
    122  CB        -4.9660   -2.4160    2.0380 C.3    72  ILE72       0.0266
    123  CG1       -4.7760   -1.2200    1.0990 C.3    72  ILE72       0.0019
    124  CG2       -3.8040   -3.3910    1.8910 C.3    72  ILE72       0.0020
    125  CD1       -3.9290   -0.1110    1.6920 C.3    72  ILE72       0.0001
    126  N         -6.9900   -3.8870    3.9690 N.am   73  LYS73      -0.1980
    127  CA        -7.2360   -4.8630    5.0290 C.3    73  LYS73       0.1596
    128  C         -8.3940   -5.7970    4.6680 C.2    73  LYS73       0.2287
    129  O         -8.4400   -6.9380    5.1310 O.2    73  LYS73      -0.2864
    130  CB        -7.5360   -4.1530    6.3510 C.3    73  LYS73       0.0298
    131  CG        -6.3030   -3.5880    7.0400 C.3    73  LYS73       0.0038
    132  CD        -6.6780   -2.8140    8.2920 C.3    73  LYS73       0.0206
    133  CE        -5.4440   -2.4020    9.0800 C.3    73  LYS73       0.1093
    134  NZ        -5.3350   -3.1350   10.3720 N.3    73  LYS73      -0.1314
@<TRIPOS>BOND
     1    72    71    2
     2    71    70    1
     3    75    74   ar
     4    70    73    1
     5    70    69    1
     6    74    73    1
     7    74    76   ar
     8    69    67   am
     9    67    68    2
    10    67    66    1
    11   110   108    1
    12    58    56    1
    13    62    61    2
    14   123   125    1
    15   123   122    1
    16    66    65    1
    17   108   105    1
    18   108   109    1
    19    86    87    1
    20   119   118    1
    21   119   122    1
    22   119   120    1
    23   124   122    1
    24    77    78    1
    25   105   104    1
    26   105   106    1
    27    44    42    1
    28    56    57    1
    29    56    53    1
    30    61    65   am
    31    61    60    1
    32    80    79    2
    33   107   106    2
    34   121   120    2
    35     1     2    1
    36    78    79    1
    37    78    81    1
    38   120   126   am
    39   106   111   am
    40    30    28   ar
    41    30    32   ar
    42    87    88    1
    43    87    90    1
    44    89    88    2
    45    59    60    1
    46    59    54   am
    47    43    42    1
    48    53    54    1
    49    53    52    1
    50    28    27   ar
    51    42    41    1
    52    92    91    2
    53    32    31   ar
    54    93    91   am
    55    48    47    2
    56    41    38    1
    57    60    63    1
    58    91    90    1
    59    88    94   am
    60    54    55    2
    61   126   127    1
    62    27    29   ar
    63    27    26    1
    64    31    29   ar
    65    81    82    1
    66   111   112    1
    67     2     5    1
    68     2     3    1
    69    47    52   am
    70    47    46    1
    71    63    64    1
    72    26    23    1
    73     4     3    2
    74    25    24    2
    75    94    95    1
    76     5     6    1
    77   128   127    1
    78   128   129    2
    79    38    39    1
    80    38    37    1
    81    82    83    1
    82   114   113    2
    83    23    24    1
    84    23    22    1
    85   112   113    1
    86   112   115    1
    87   127   130    1
    88    45    39   am
    89    45    46    1
    90    97    96    2
    91    36    35    2
    92    95    96    1
    93    95    98    1
    94    39    40    2
    95    24    33   am
    96    46    49    1
    97    37    35   am
    98    35    34    1
    99    22    20   am
   100    21    20    2
   101     6     7    1
   102    83    84    2
   103    83    85   am
   104     9     8    1
   105    49    50    1
   106    49    51    1
   107    33    34    1
   108   130   131    1
   109    98    99    1
   110   115   117    1
   111   115   116    1
   112     7     8    1
   113    20    19    1
   114   131   132    1
   115    99   101   ar
   116    99   100   ar
   117   101   103   ar
   118    19    18    1
   119   100   102   ar
   120   103   102   ar
   121   132   133    1
   122    18    12   am
   123   133   134    1
   124    12    13    2
   125    12    11    1
   126    10    11    1
   127    14    11    1
   128    14    15    1
   129    17    15   am
   130    15    16    2
