@<TRIPOS>MOLECULE
tmp/2oscA00.pdb
 184 173 0 0 0
SMALL
GASTEIGER

@<TRIPOS>ATOM
      1  N         47.8800   -6.2810   77.3980 N.3     2  VAL2       -0.1245
      2  CA        49.3400   -6.2310   77.4210 C.3     2  VAL2        0.1561
      3  C         49.8510   -7.1470   78.5240 C.2     2  VAL2        0.2260
      4  O         49.3540   -7.1150   79.6500 O.2     2  VAL2       -0.2867
      5  CB        49.8540   -4.8050   77.6870 C.3     2  VAL2        0.0252
      6  CG1       51.3750   -4.7910   77.6670 C.3     2  VAL2        0.0019
      7  CG2       49.2960   -3.8520   76.6470 C.3     2  VAL2        0.0019
      8  N         57.3980   -6.8990   76.4620 N.3    11  ALA11      -0.1245
      9  CA        55.9770   -6.6840   76.7310 C.3    11  ALA11       0.1562
     10  C         55.1950   -6.9820   75.4550 C.2    11  ALA11       0.2260
     11  O         55.5410   -6.5020   74.3750 O.2    11  ALA11      -0.2867
     12  CB        55.7310   -5.2480   77.1690 C.3    11  ALA11       0.0290
     13  N         51.3320   -7.2420   73.4050 N.3    13  LYS13      -0.1245
     14  CA        49.9510   -6.7910   73.3930 C.3    13  LYS13       0.1561
     15  C         49.1030   -7.8390   72.6910 C.2    13  LYS13       0.2260
     16  O         49.1530   -7.9770   71.4710 O.2    13  LYS13      -0.2867
     17  CB        49.8230   -5.4400   72.6810 C.3    13  LYS13       0.0271
     18  CG        48.4030   -4.8850   72.6960 C.3    13  LYS13       0.0035
     19  CD        48.3480   -3.3780   72.4560 C.3    13  LYS13       0.0206
     20  CE        48.7290   -2.9910   71.0390 C.3    13  LYS13       0.1093
     21  NZ        48.5830   -1.5240   70.8460 N.3    13  LYS13      -0.1314
     22  N         49.3480   -0.5880   63.1790 N.3    26  GLU26      -0.1245
     23  CA        50.4280   -0.4170   64.1410 C.3    26  GLU26       0.1567
     24  C         51.6900   -1.2150   63.8220 C.2    26  GLU26       0.2260
     25  O         52.8020   -0.6940   63.9510 O.2    26  GLU26      -0.2867
     26  CB        49.9350   -0.7640   65.5490 C.3    26  GLU26       0.0388
     27  CG        50.9780   -0.5590   66.6400 C.3    26  GLU26       0.1160
     28  CD        50.4030   -0.7060   68.0380 C.2    26  GLU26       0.3649
     29  OE1       49.6010   -1.6370   68.2580 O.co2  26  GLU26      -0.2457
     30  OE2       50.7610    0.1040   68.9190 O.co2  26  GLU26      -0.2457
     31  N         53.4000    0.1010   60.8960 N.3    29  VAL29      -0.1231
     32  CA        54.0300    1.3240   61.3620 C.3    29  VAL29       0.1692
     33  C         55.3460    1.0700   62.0920 C.2    29  VAL29       0.2591
     34  O         56.3780    1.6440   61.7420 O.2    29  VAL29      -0.2718
     35  CB        53.0790    2.1050   62.3000 C.3    29  VAL29       0.0266
     36  CG1       53.8020    3.2890   62.9030 C.3    29  VAL29       0.0020
     37  CG2       51.8550    2.5780   61.5220 C.3    29  VAL29       0.0020
     38  N         55.3110    0.2080   63.1020 N.am   30  LEU30      -0.1980
     39  CA        56.5080   -0.1010   63.8790 C.3    30  LEU30       0.1596
     40  C         57.6210   -0.7000   63.0170 C.2    30  LEU30       0.2287
     41  O         58.8020   -0.5380   63.3210 O.2    30  LEU30      -0.2864
     42  CB        56.1640   -1.0660   65.0200 C.3    30  LEU30       0.0297
     43  CG        55.0680   -0.6660   66.0130 C.3    30  LEU30       0.0022
     44  CD1       54.7700   -1.8480   66.9080 C.3    30  LEU30       0.0001
     45  CD2       55.4940    0.5430   66.8330 C.3    30  LEU30       0.0001
     46  N         59.4500    2.1870   61.2870 N.3    33  LEU33      -0.1245
     47  CA        60.1730    3.0830   62.1880 C.3    33  LEU33       0.1561
     48  C         61.6490    2.7360   62.3210 C.2    33  LEU33       0.2260
     49  O         62.4700    3.6000   62.6360 O.2    33  LEU33      -0.2867
     50  CB        59.5380    3.0730   63.5810 C.3    33  LEU33       0.0270
     51  CG        58.0890    3.5340   63.7440 C.3    33  LEU33       0.0019
     52  CD1       57.7380    3.4810   65.2140 C.3    33  LEU33       0.0001
     53  CD2       57.8990    4.9430   63.2080 C.3    33  LEU33       0.0001
     54  N         63.4090    5.3290   70.7210 N.3    39  ILE39      -0.1231
     55  CA        62.0480    5.0180   70.2670 C.3    39  ILE39       0.1692
     56  C         61.8510    3.5700   70.6870 C.2    39  ILE39       0.2591
     57  O         62.8320    2.8530   70.8600 O.2    39  ILE39      -0.2718
     58  CB        61.8700    5.1190   68.7440 C.3    39  ILE39       0.0266
     59  CG1       62.3940    3.8580   68.0760 C.3    39  ILE39       0.0019
     60  CG2       62.5750    6.3520   68.2130 C.3    39  ILE39       0.0020
     61  CD1       62.0990    3.7920   66.5900 C.3    39  ILE39       0.0001
     62  N         60.6130    3.1270   70.8810 N.am   40  ILE40      -0.1980
     63  CA        60.3910    1.7410   71.3010 C.3    40  ILE40       0.1595
     64  C         61.0250    0.7460   70.3560 C.2    40  ILE40       0.2287
     65  O         61.2600    1.0450   69.1910 O.2    40  ILE40      -0.2864
     66  CB        58.8880    1.3880   71.4300 C.3    40  ILE40       0.0276
     67  CG1       58.0970    1.9680   70.2580 C.3    40  ILE40       0.0022
     68  CG2       58.3530    1.8970   72.7490 C.3    40  ILE40       0.0022
     69  CD1       58.4130    1.3560   68.9270 C.3    40  ILE40       0.0001
     70  N         51.3940   -8.2320   69.6540 N.3    50  LEU50      -0.1245
     71  CA        52.5430   -7.4470   69.1970 C.3    50  LEU50       0.1561
     72  C         53.4730   -7.2390   70.3890 C.2    50  LEU50       0.2260
     73  O         53.0410   -6.7620   71.4360 O.2    50  LEU50      -0.2867
     74  CB        52.0720   -6.0920   68.6610 C.3    50  LEU50       0.0270
     75  CG        52.9100   -5.4260   67.5620 C.3    50  LEU50       0.0019
     76  CD1       52.2960   -4.0690   67.2320 C.3    50  LEU50       0.0001
     77  CD2       54.3630   -5.2710   68.0050 C.3    50  LEU50       0.0001
     78  N         57.1830   -5.7110   72.1060 N.3    52  ILE52      -0.1231
     79  CA        58.2910   -4.7570   72.0590 C.3    52  ILE52       0.1692
     80  C         59.0780   -4.9080   73.3610 C.2    52  ILE52       0.2592
     81  O         58.5400   -5.3880   74.3570 O.2    52  ILE52      -0.2718
     82  CB        57.8030   -3.3020   71.9950 C.3    52  ILE52       0.0266
     83  CG1       57.2020   -2.9090   73.3430 C.3    52  ILE52       0.0019
     84  CG2       56.7780   -3.1330   70.8820 C.3    52  ILE52       0.0020
     85  CD1       56.8510   -1.4450   73.4500 C.3    52  ILE52       0.0001
     86  N         60.3430   -4.4980   73.3610 N.am   53  GLU53      -0.1966
     87  CA        61.1590   -4.6040   74.5630 C.3    53  GLU53       0.1733
     88  C         60.4230   -3.9530   75.7300 C.2    53  GLU53       0.2616
     89  O         59.7400   -2.9450   75.5560 O.2    53  GLU53      -0.2715
     90  CB        62.5110   -3.9310   74.3470 C.3    53  GLU53       0.0429
     91  CG        63.5600   -4.3250   75.3630 C.3    53  GLU53       0.1163
     92  CD        64.9620   -3.9680   74.9030 C.2    53  GLU53       0.3649
     93  OE1       65.9370   -4.3620   75.5770 O.co2  53  GLU53      -0.2457
     94  OE2       65.0870   -3.2930   73.8600 O.co2  53  GLU53      -0.2457
     95  N         60.5570   -4.5360   76.9160 N.am   54  TYR54      -0.1960
     96  CA        59.8770   -4.0260   78.1000 C.3    54  TYR54       0.1771
     97  C         60.5960   -2.8540   78.7380 C.2    54  TYR54       0.2619
     98  O         61.8260   -2.7750   78.7080 O.2    54  TYR54      -0.2715
     99  CB        59.7200   -5.1350   79.1410 C.3    54  TYR54       0.0574
    100  CG        58.9050   -4.7160   80.3430 C.ar   54  TYR54      -0.0198
    101  CD1       57.5680   -4.3710   80.2100 C.ar   54  TYR54      -0.0009
    102  CD2       59.4730   -4.6500   81.6080 C.ar   54  TYR54      -0.0009
    103  CE1       56.8210   -3.9730   81.2970 C.ar   54  TYR54       0.0417
    104  CE2       58.7280   -4.2490   82.7040 C.ar   54  TYR54       0.0417
    105  CZ        57.4020   -3.9130   82.5380 C.ar   54  TYR54       0.1957
    106  OH        56.6460   -3.5130   83.6180 O.3    54  TYR54      -0.2866
    107  N         59.8170   -1.9460   79.3160 N.am   55  ALA55      -0.1977
    108  CA        60.3660   -0.7750   79.9860 C.3    55  ALA55       0.1597
    109  C         60.0310   -0.8940   81.4620 C.2    55  ALA55       0.2287
    110  O         58.9120   -0.6180   81.8910 O.2    55  ALA55      -0.2864
    111  CB        59.7730    0.4920   79.4110 C.3    55  ALA55       0.0319
    112  N         58.1930    2.2400   83.5470 N.3    58  GLY58      -0.1225
    113  CA        56.9230    2.8510   83.1950 C.3    58  GLY58       0.1811
    114  C         56.9740    4.0730   82.2940 C.2    58  GLY58       0.2280
    115  O         58.0110    4.3670   81.6910 O.2    58  GLY58      -0.2866
    116  N         62.8690   10.2890   63.9370 N.3   105  LEU105     -0.1245
    117  CA        61.5710   10.0180   63.3260 C.3   105  LEU105      0.1561
    118  C         61.1720   11.0600   62.2860 C.2   105  LEU105      0.2260
    119  O         60.8200   10.7050   61.1590 O.2   105  LEU105     -0.2867
    120  CB        60.4610    9.9300   64.3890 C.3   105  LEU105      0.0270
    121  CG        60.4350    8.7060   65.3130 C.3   105  LEU105      0.0019
    122  CD1       59.2130    8.7640   66.2100 C.3   105  LEU105      0.0001
    123  CD2       60.4030    7.4400   64.4900 C.3   105  LEU105      0.0001
    124  N         57.9990   10.9620   59.6340 N.3   110  PHE110     -0.1241
    125  CA        57.0500   10.3820   60.5630 C.3   110  PHE110      0.1605
    126  C         56.4860   11.4640   61.4610 C.2   110  PHE110      0.2264
    127  O         57.2270   12.1650   62.1600 O.2   110  PHE110     -0.2867
    128  CB        57.7210    9.3270   61.4320 C.3   110  PHE110      0.0534
    129  CG        56.8120    8.7220   62.4580 C.ar  110  PHE110     -0.0203
    130  CD1       55.9090    7.7300   62.1060 C.ar  110  PHE110     -0.0042
    131  CD2       56.8500    9.1480   63.7740 C.ar  110  PHE110     -0.0042
    132  CE1       55.0600    7.1740   63.0530 C.ar  110  PHE110     -0.0003
    133  CE2       56.0030    8.5980   64.7270 C.ar  110  PHE110     -0.0003
    134  CZ        55.1090    7.6100   64.3630 C.ar  110  PHE110     -0.0000
    135  N         54.2470   12.2020   64.6560 N.3   112  HIS112     -0.1241
    136  CA        53.7540   11.4900   65.8160 C.3   112  HIS112      0.1621
    137  C         52.2880   11.7750   66.1530 C.2   112  HIS112      0.2264
    138  O         51.5310   10.8430   66.4080 O.2   112  HIS112     -0.2867
    139  CB        54.6540   11.7880   67.0170 C.3   112  HIS112      0.0745
    140  CG        54.4060   10.8910   68.1800 C.ar  112  HIS112      0.0817
    141  ND1       53.3430   11.0670   69.0440 N.ar  112  HIS112     -0.2268
    142  CD2       55.0320    9.7600   68.5800 C.ar  112  HIS112      0.1154
    143  CE1       53.3260   10.0790   69.9230 C.ar  112  HIS112      0.1986
    144  NE2       54.3420    9.2720   69.6610 N.ar  112  HIS112     -0.2212
    145  N         58.2920    6.2620   77.2950 N.3   121  LEU121     -0.1245
    146  CA        58.6780    5.2280   78.2450 C.3   121  LEU121      0.1561
    147  C         60.0690    5.4840   78.8100 C.2   121  LEU121      0.2260
    148  O         60.9120    6.1030   78.1670 O.2   121  LEU121     -0.2867
    149  CB        58.6310    3.8390   77.5900 C.3   121  LEU121      0.0270
    150  CG        57.2450    3.2360   77.3180 C.3   121  LEU121      0.0019
    151  CD1       57.3580    1.9970   76.4380 C.3   121  LEU121      0.0001
    152  CD2       56.5780    2.8870   78.6360 C.3   121  LEU121      0.0001
    153  N         60.4220    7.1530   72.9530 N.3   130  ILE130     -0.1231
    154  CA        59.1830    7.5780   72.3150 C.3   130  ILE130      0.1692
    155  C         58.2720    6.3730   72.0370 C.2   130  ILE130      0.2592
    156  O         58.7130    5.3610   71.4900 O.2   130  ILE130     -0.2718
    157  CB        59.4780    8.3250   70.9820 C.3   130  ILE130      0.0266
    158  CG1       60.1390    9.6800   71.2870 C.3   130  ILE130      0.0019
    159  CG2       58.1900    8.4940   70.1760 C.3   130  ILE130      0.0020
    160  CD1       60.7080   10.3700   70.0850 C.3   130  ILE130      0.0001
    161  N         57.0060    6.4920   72.4300 N.am  131  ALA131     -0.1966
    162  CA        56.0190    5.4370   72.2220 C.3   131  ALA131      0.1728
    163  C         54.6690    6.0560   71.8730 C.2   131  ALA131      0.2616
    164  O         54.5730    7.2570   71.6620 O.2   131  ALA131     -0.2715
    165  CB        55.8900    4.5920   73.4820 C.3   131  ALA131      0.0334
    166  N         53.6330    5.2240   71.7990 N.am  132  ASP132     -0.1957
    167  CA        52.2780    5.6900   71.5130 C.3   132  ASP132      0.1840
    168  C         51.2920    4.6070   71.9310 C.2   132  ASP132      0.2622
    169  O         51.1370    3.5970   71.2440 O.2   132  ASP132     -0.2715
    170  CB        52.0820    6.0010   70.0270 C.3   132  ASP132      0.1450
    171  CG        50.7500    6.7150   69.7590 C.2   132  ASP132      0.3671
    172  OD1       49.7750    6.4470   70.5000 O.co2 132  ASP132     -0.2456
    173  OD2       50.6690    7.5340   68.8150 O.co2 132  ASP132     -0.2456
    174  N         50.6230    4.8370   73.0580 N.am  133  PHE133     -0.1974
    175  CA        49.6630    3.8810   73.6120 C.3   133  PHE133      0.1639
    176  C         48.2210    4.0690   73.1430 C.2   133  PHE133      0.2290
    177  O         47.3660    3.2390   73.4470 O.2   133  PHE133     -0.2864
    178  CB        49.7030    3.9380   75.1470 C.3   133  PHE133      0.0560
    179  CG        51.0820    3.8000   75.7200 C.ar  133  PHE133     -0.0200
    180  CD1       51.5990    4.7780   76.5530 C.ar  133  PHE133     -0.0042
    181  CD2       51.8740    2.7090   75.4020 C.ar  133  PHE133     -0.0042
    182  CE1       52.8770    4.6710   77.0530 C.ar  133  PHE133     -0.0003
    183  CE2       53.1560    2.5950   75.8980 C.ar  133  PHE133     -0.0003
    184  CZ        53.6610    3.5760   76.7250 C.ar  133  PHE133     -0.0000
@<TRIPOS>BOND
     1   124   125    1
     2   125   128    1
     3   125   126    1
     4    31    32    1
     5   119   118    2
     6    46    47    1
     7    32    33    1
     8    32    35    1
     9   128   129    1
    10   126   127    2
    11    37    35    1
    12    34    33    2
    13    33    38   am
    14   130   129   ar
    15   130   132   ar
    16    47    48    1
    17    47    50    1
    18   118   117    1
    19    35    36    1
    20    48    49    2
    21   129   131   ar
    22    40    41    2
    23    40    39    1
    24   132   134   ar
    25    38    39    1
    26    22    23    1
    27    53    51    1
    28   117   116    1
    29   117   120    1
    30    50    51    1
    31    51    52    1
    32   131   133   ar
    33    24    25    2
    34    24    23    1
    35    39    42    1
    36    23    26    1
    37   134   133   ar
    38   120   121    1
    39   123   121    1
    40   135   136    1
    41    42    43    1
    42   121   122    1
    43    26    27    1
    44   136   137    1
    45   136   139    1
    46    43    45    1
    47    43    44    1
    48   137   138    2
    49    61    59    1
    50    27    28    1
    51   139   140    1
    52    76    75    1
    53    75    77    1
    54    75    74    1
    55    28    29   ar
    56    28    30   ar
    57    59    58    1
    58   140   142   ar
    59   140   141   ar
    60    60    58    1
    61   142   144   ar
    62    74    71    1
    63    58    55    1
    64   173   171   ar
    65    69    67    1
    66   141   143   ar
    67    65    64    2
    68    71    70    1
    69    71    72    1
    70   144   143   ar
    71   171   170    1
    72   171   172   ar
    73   170   167    1
    74   160   158    1
    75   159   157    1
    76    67    66    1
    77    55    56    1
    78    55    54    1
    79    64    63    1
    80    72    73    2
    81    56    57    2
    82    56    62   am
    83    21    20    1
    84    62    63    1
    85    84    82    1
    86   157   158    1
    87   157   154    1
    88    20    19    1
    89   169   168    2
    90    63    66    1
    91    66    68    1
    92    16    15    2
    93   156   155    2
    94   167   166    1
    95   167   168    1
    96   164   163    2
    97   166   163   am
    98   163   162    1
    99   168   174   am
   100    82    79    1
   101    82    83    1
   102   155   154    1
   103   155   161   am
   104    79    78    1
   105    79    80    1
   106   162   161    1
   107   162   165    1
   108   154   153    1
   109    19    18    1
   110    17    18    1
   111    17    14    1
   112    15    14    1
   113   174   175    1
   114   176   177    2
   115   176   175    1
   116    83    85    1
   117    86    80   am
   118    86    87    1
   119    80    81    2
   120    14    13    1
   121   175   178    1
   122    94    92   ar
   123    90    87    1
   124    90    91    1
   125    11    10    2
   126    87    88    1
   127    92    91    1
   128    92    93   ar
   129   178   179    1
   130   181   179   ar
   131   181   183   ar
   132    10     9    1
   133    89    88    2
   134   179   180   ar
   135    88    95   am
   136   183   184   ar
   137   151   150    1
   138     8     9    1
   139   180   182   ar
   140     7     5    1
   141   184   182   ar
   142     9    12    1
   143    95    96    1
   144   145   146    1
   145   150   149    1
   146   150   152    1
   147     1     2    1
   148     2     5    1
   149     2     3    1
   150   149   146    1
   151     6     5    1
   152    96    97    1
   153    96    99    1
   154   148   147    2
   155   146   147    1
   156     3     4    2
   157    98    97    2
   158    97   107   am
   159    99   100    1
   160   107   108    1
   161   111   108    1
   162   108   109    1
   163   101   100   ar
   164   101   103   ar
   165   100   102   ar
   166   103   105   ar
   167   109   110    2
   168   102   104   ar
   169   115   114    2
   170   114   113    1
   171   105   104   ar
   172   105   106    1
   173   113   112    1
