@<TRIPOS>MOLECULE
tmp/2osfA01.pdb
 91 88 0 0 0
SMALL
GASTEIGER

@<TRIPOS>ATOM
      1  N        -16.4970    7.0340    3.0770 N.3    54  LEU54      -0.1231
      2  CA       -15.8420    7.5770    1.8990 C.3    54  LEU54       0.1693
      3  C        -15.0830    6.5780    1.0390 C.2    54  LEU54       0.2591
      4  O        -15.1980    6.5090   -0.1940 O.2    54  LEU54      -0.2718
      5  CB       -14.8130    8.6390    2.3480 C.3    54  LEU54       0.0284
      6  CG       -15.4240    9.7860    3.1630 C.3    54  LEU54       0.0019
      7  CD1      -14.3230   10.7180    3.6520 C.3    54  LEU54       0.0001
      8  CD2      -16.4700   10.5070    2.3380 C.3    54  LEU54       0.0001
      9  N        -14.2310    5.7780    1.6900 N.am   55  ARG55      -0.1980
     10  CA       -13.1580    5.1220    0.9500 C.3    55  ARG55       0.1597
     11  C        -12.6730    3.8930    1.6830 C.2    55  ARG55       0.2287
     12  O        -12.8390    3.8430    2.9160 O.2    55  ARG55      -0.2864
     13  CB       -12.0230    6.1370    0.8600 C.3    55  ARG55       0.0334
     14  CG       -10.8960    5.8320   -0.1040 C.3    55  ARG55       0.0492
     15  CD       -10.0880    7.1460   -0.2490 C.3    55  ARG55       0.2205
     16  NE        -9.2050    7.2130    0.9220 N.pl3  55  ARG55      -0.0865
     17  CZ        -7.8960    7.4500    0.7970 C.cat  55  ARG55       0.5346
     18  NH1       -7.1830    7.4850    1.9000 N.pl3  55  ARG55       0.1354
     19  NH2       -7.3570    7.6450   -0.3930 N.pl3  55  ARG55       0.1354
     20  N         -8.4330   -0.0120    5.8820 N.3    64  ASN64      -0.1240
     21  CA        -9.2230    0.9110    6.6620 C.3    64  ASN64       0.1653
     22  C        -10.4610    1.3360    5.8630 C.2    64  ASN64       0.2266
     23  O        -10.2480    1.6940    4.6990 O.2    64  ASN64      -0.2867
     24  CB        -8.4600    2.1910    6.9830 C.3    64  ASN64       0.1155
     25  CG        -7.3920    1.9950    8.0410 C.2    64  ASN64       0.2627
     26  OD1       -7.2340    0.8980    8.5670 O.2    64  ASN64      -0.2716
     27  ND2       -6.6710    3.0620    8.3350 N.am   64  ASN64      -0.0877
     28  N        -12.8110    4.4740    5.7520 N.3    66  GLU66      -0.1231
     29  CA       -12.7400    5.8370    6.2350 C.3    66  GLU66       0.1699
     30  C        -14.0610    6.5890    6.1390 C.2    66  GLU66       0.2592
     31  O        -14.7570    6.3910    5.1340 O.2    66  GLU66      -0.2718
     32  CB       -11.7010    6.6100    5.4000 C.3    66  GLU66       0.0402
     33  CG       -10.3780    5.8510    5.4560 C.3    66  GLU66       0.1161
     34  CD        -9.3120    6.5540    4.6370 C.2    66  GLU66       0.3649
     35  OE1       -8.1600    6.4110    5.0800 O.co2  66  GLU66      -0.2457
     36  OE2       -9.6700    7.2380    3.6630 O.co2  66  GLU66      -0.2457
     37  N        -14.3520    7.4210    7.1380 N.am   67  PHE67      -0.1962
     38  CA       -15.6240    8.1270    7.2200 C.3    67  PHE67       0.1771
     39  C        -15.4170    9.6370    7.1850 C.2    67  PHE67       0.2620
     40  O        -14.3590   10.1190    7.5580 O.2    67  PHE67      -0.2715
     41  CB       -16.3780    7.7580    8.5170 C.3    67  PHE67       0.0574
     42  CG       -16.9190    6.3310    8.4440 C.ar   67  PHE67      -0.0200
     43  CD1      -16.0870    5.2650    8.7480 C.ar   67  PHE67      -0.0042
     44  CD2      -18.2170    6.0650    8.0810 C.ar   67  PHE67      -0.0042
     45  CE1      -16.5480    3.9530    8.6780 C.ar   67  PHE67      -0.0003
     46  CE2      -18.6970    4.7640    7.9980 C.ar   67  PHE67      -0.0003
     47  CZ       -17.8560    3.7070    8.3000 C.ar   67  PHE67      -0.0000
     48  N        -16.4370   10.3640    6.7800 N.am   68  ASP68      -0.1957
     49  CA       -16.4320   11.8190    6.8940 C.3    68  ASP68       0.1840
     50  C        -16.6580   12.1670    8.3590 C.2    68  ASP68       0.2622
     51  O        -17.7090   11.7710    8.8740 O.2    68  ASP68      -0.2715
     52  CB       -17.5530   12.3830    6.0230 C.3    68  ASP68       0.1450
     53  CG       -17.8170   13.8600    6.2010 C.2    68  ASP68       0.3671
     54  OD1      -16.9920   14.5830    6.7960 O.co2  68  ASP68      -0.2456
     55  OD2      -18.8860   14.3320    5.7500 O.co2  68  ASP68      -0.2456
     56  N        -15.7130   12.8200    9.0090 N.am   69  ASP69      -0.1971
     57  CA       -15.8130   13.1620   10.4260 C.3    69  ASP69       0.1709
     58  C        -15.7810   14.6830   10.6000 C.2    69  ASP69       0.2293
     59  O        -15.3000   15.1970   11.6120 O.2    69  ASP69      -0.2864
     60  CB       -14.6740   12.5080   11.2090 C.3    69  ASP69       0.1436
     61  CG       -13.3220   13.0860   10.8250 C.2    69  ASP69       0.3671
     62  OD1      -13.2080   13.7690    9.7700 O.co2  69  ASP69      -0.2456
     63  OD2      -12.3320   12.8670   11.5490 O.co2  69  ASP69      -0.2456
     64  N        -14.1250    7.8330   12.8340 N.3    88  ILE88      -0.1231
     65  CA       -13.2960    8.2820   11.7180 C.3    88  ILE88       0.1692
     66  C        -12.9270    7.1080   10.8160 C.2    88  ILE88       0.2591
     67  O        -12.8470    7.2300    9.5930 O.2    88  ILE88      -0.2718
     68  CB       -12.0310    9.0060   12.1960 C.3    88  ILE88       0.0266
     69  CG1      -11.1500    9.4880   11.0370 C.3    88  ILE88       0.0019
     70  CG2      -11.2480    8.1210   13.1500 C.3    88  ILE88       0.0020
     71  CD1      -10.0580   10.4310   11.5490 C.3    88  ILE88       0.0001
     72  N        -12.7390    5.9060   11.3660 N.am   89  GLN89      -0.1979
     73  CA       -12.3840    4.7640   10.5260 C.3    89  GLN89       0.1601
     74  C        -12.6510    3.4510   11.2730 C.2    89  GLN89       0.2287
     75  O        -12.7330    3.4610   12.4910 O.2    89  GLN89      -0.2864
     76  CB       -10.9170    4.7890   10.0960 C.3    89  GLN89       0.0394
     77  CG        -9.8930    4.8270   11.2280 C.3    89  GLN89       0.0908
     78  CD        -9.0800    3.5670   11.3830 C.2    89  GLN89       0.2608
     79  OE1       -9.5820    2.4600   11.3290 O.2    89  GLN89      -0.2717
     80  NE2       -7.7740    3.7170   11.5790 N.am   89  GLN89      -0.0878
     81  N         -8.5130   14.6880   14.8800 N.3   127  PHE127     -0.1241
     82  CA        -7.9200   13.4230   15.2610 C.3   127  PHE127      0.1605
     83  C         -6.4660   13.5780   15.7150 C.2   127  PHE127      0.2264
     84  O         -6.0780   12.9780   16.7210 O.2   127  PHE127     -0.2867
     85  CB        -8.0110   12.4470   14.0740 C.3   127  PHE127      0.0534
     86  CG        -7.4000   11.0870   14.4000 C.ar  127  PHE127     -0.0203
     87  CD1       -8.1780   10.1620   15.0770 C.ar  127  PHE127     -0.0042
     88  CD2       -6.0910   10.7770   14.0270 C.ar  127  PHE127     -0.0042
     89  CE1       -7.6290    8.9340   15.3740 C.ar  127  PHE127     -0.0003
     90  CE2       -5.5410    9.5480   14.3380 C.ar  127  PHE127     -0.0003
     91  CZ        -6.3300    8.6370   15.0190 C.ar  127  PHE127     -0.0000
@<TRIPOS>BOND
     1    19    17    1
     2    15    14    1
     3    15    16    1
     4     4     3    2
     5    14    13    1
     6    17    16    2
     7    17    18    1
     8    13    10    1
     9    10    11    1
    10    10     9    1
    11     3     9   am
    12     3     2    1
    13    11    12    2
    14     2     5    1
    15     2     1    1
    16     8     6    1
    17     5     6    1
    18     6     7    1
    19    36    34   ar
    20    34    35   ar
    21    34    33    1
    22    23    22    2
    23    31    30    2
    24    32    33    1
    25    32    29    1
    26    55    53   ar
    27    28    29    1
    28    22    21    1
    29    20    21    1
    30    52    53    1
    31    52    49    1
    32    30    29    1
    33    30    37   am
    34    53    54   ar
    35    21    24    1
    36    48    49    1
    37    48    39   am
    38    49    50    1
    39    24    25    1
    40    37    38    1
    41    39    38    1
    42    39    40    2
    43    38    41    1
    44    46    44   ar
    45    46    47   ar
    46    25    27   am
    47    25    26    2
    48    44    42   ar
    49    47    45   ar
    50    50    51    2
    51    50    56   am
    52    42    41    1
    53    42    43   ar
    54    45    43   ar
    55    56    57    1
    56    67    66    2
    57    62    61   ar
    58    76    73    1
    59    76    77    1
    60    57    58    1
    61    57    60    1
    62    73    74    1
    63    73    72    1
    64    58    59    2
    65    66    72   am
    66    66    65    1
    67    61    60    1
    68    61    63   ar
    69    69    71    1
    70    69    68    1
    71    77    78    1
    72    74    75    2
    73    79    78    2
    74    78    80   am
    75    65    68    1
    76    65    64    1
    77    68    70    1
    78    88    90   ar
    79    88    86   ar
    80    85    86    1
    81    85    82    1
    82    90    91   ar
    83    86    87   ar
    84    81    82    1
    85    91    89   ar
    86    87    89   ar
    87    82    83    1
    88    83    84    2
