@<TRIPOS>MOLECULE
tmp/2osmA00.pdb
 125 120 0 0 0
SMALL
GASTEIGER

@<TRIPOS>ATOM
      1  N         -0.8440   -2.4570    6.3450 N.3    62  HIS62      -0.1241
      2  CA        -0.8360   -3.3350    7.5230 C.3    62  HIS62       0.1621
      3  C         -2.2530   -3.6760    7.9880 C.2    62  HIS62       0.2264
      4  O         -2.3960   -4.3780    8.9940 O.2    62  HIS62      -0.2867
      5  CB        -0.0580   -2.7420    8.6820 C.3    62  HIS62       0.0745
      6  CG        -0.5540   -1.4000    9.1300 C.ar   62  HIS62       0.0817
      7  ND1       -1.5770   -1.2320   10.0230 N.ar   62  HIS62      -0.2268
      8  CD2       -0.1330   -0.1510    8.8040 C.ar   62  HIS62       0.1154
      9  CE1       -1.7900    0.0540   10.2340 C.ar   62  HIS62       0.1986
     10  NE2       -0.9160    0.7350    9.5010 N.ar   62  HIS62      -0.2212
     11  N        -12.8330    5.9290   11.4240 N.3    90  GLN90      -0.1245
     12  CA       -12.5250    4.8080   10.5510 C.3    90  GLN90       0.1566
     13  C        -12.7370    3.4820   11.2870 C.2    90  GLN90       0.2260
     14  O        -12.7990    3.4920   12.5080 O.2    90  GLN90      -0.2867
     15  CB       -11.0660    4.8740   10.0820 C.3    90  GLN90       0.0367
     16  CG       -10.0990    4.8560   11.2490 C.3    90  GLN90       0.0905
     17  CD        -9.2630    3.6000   11.3320 C.2    90  GLN90       0.2608
     18  OE1       -9.7930    2.5010   11.3690 O.2    90  GLN90      -0.2717
     19  NE2       -7.9480    3.7790   11.3890 N.am   90  GLN90      -0.0878
     20  N        -11.1870   -0.7650   11.1200 N.3    92  HIS92      -0.1241
     21  CA       -10.2970   -1.7380   10.4810 C.3    92  HIS92       0.1621
     22  C        -10.4290   -3.0440   11.2520 C.2    92  HIS92       0.2264
     23  O        -11.0520   -3.0710   12.3120 O.2    92  HIS92      -0.2867
     24  CB        -8.8440   -1.2790   10.4740 C.3    92  HIS92       0.0745
     25  CG        -8.3650   -0.9210   11.8480 C.ar   92  HIS92       0.0817
     26  ND1       -8.4330    0.3320   12.4280 N.ar   92  HIS92      -0.2268
     27  CD2       -7.8050   -1.7400   12.7700 C.ar   92  HIS92       0.1154
     28  CE1       -7.9020    0.2410   13.6570 C.ar   92  HIS92       0.1986
     29  NE2       -7.5120   -1.0110   13.8950 N.ar   92  HIS92      -0.2212
     30  N         -8.1130   -6.7380   12.5250 N.3    94  HIS94      -0.1241
     31  CA        -6.9070   -7.5100   12.7250 C.3    94  HIS94       0.1621
     32  C         -7.3410   -8.9740   12.5720 C.2    94  HIS94       0.2264
     33  O         -8.4190   -9.3570   13.0930 O.2    94  HIS94      -0.2867
     34  CB        -6.2920   -7.2940   14.1070 C.3    94  HIS94       0.0745
     35  CG        -5.9490   -5.8450   14.3940 C.ar   94  HIS94       0.0817
     36  ND1       -4.6790   -5.3410   14.2900 N.ar   94  HIS94      -0.2268
     37  CD2       -6.7500   -4.8160   14.7640 C.ar   94  HIS94       0.1154
     38  CE1       -4.6900   -4.0270   14.6060 C.ar   94  HIS94       0.1986
     39  NE2       -5.9310   -3.7160   14.8910 N.ar   94  HIS94      -0.2212
     40  N        -12.0200   -3.0140   14.9550 N.3   117  HIS117     -0.1241
     41  CA       -11.8010   -1.8000   15.7530 C.3   117  HIS117      0.1621
     42  C        -12.5650   -0.6450   15.1150 C.2   117  HIS117      0.2264
     43  O        -12.2610   -0.2340   13.9840 O.2   117  HIS117     -0.2867
     44  CB       -10.2990   -1.5190   15.8140 C.3   117  HIS117      0.0745
     45  CG        -9.5880   -2.4850   16.7030 C.ar  117  HIS117      0.0817
     46  ND1       -8.2160   -2.6050   16.7680 N.ar  117  HIS117     -0.2268
     47  CD2      -10.1310   -3.3490   17.5890 C.ar  117  HIS117      0.1154
     48  CE1       -7.9430   -3.5410   17.6690 C.ar  117  HIS117      0.1986
     49  NE2       -9.0740   -4.0040   18.1620 N.ar  117  HIS117     -0.2212
     50  N        -12.9940    3.1110   15.3800 N.3   119  VAL119     -0.1245
     51  CA       -12.2130    4.1550   16.0550 C.3   119  VAL119      0.1561
     52  C        -12.8860    5.5190   16.0970 C.2   119  VAL119      0.2260
     53  O        -13.2820    6.0010   15.0380 O.2   119  VAL119     -0.2867
     54  CB       -10.9130    4.3450   15.2450 C.3   119  VAL119      0.0252
     55  CG1       -9.9930    5.3640   15.8860 C.3   119  VAL119      0.0019
     56  CG2      -10.2230    2.9910   15.0720 C.3   119  VAL119      0.0019
     57  N         -8.4980   14.7020   14.8480 N.3   128  PHE128     -0.1241
     58  CA        -7.9500   13.4050   15.2400 C.3   128  PHE128      0.1605
     59  C         -6.5170   13.5370   15.7170 C.2   128  PHE128      0.2264
     60  O         -6.1070   12.9370   16.7220 O.2   128  PHE128     -0.2867
     61  CB        -8.0960   12.4420   14.0390 C.3   128  PHE128      0.0534
     62  CG        -7.5010   11.0730   14.3800 C.ar  128  PHE128     -0.0203
     63  CD1       -8.2380   10.1310   15.0690 C.ar  128  PHE128     -0.0042
     64  CD2       -6.2040   10.7450   13.9990 C.ar  128  PHE128     -0.0042
     65  CE1       -7.6970    8.8890   15.3670 C.ar  128  PHE128     -0.0003
     66  CE2       -5.6480    9.5130   14.3100 C.ar  128  PHE128     -0.0003
     67  CZ        -6.3950    8.5840   15.0100 C.ar  128  PHE128     -0.0000
     68  N         -9.2520    9.0640   22.3520 N.3   138  LEU138     -0.1245
     69  CA        -9.9520    8.1230   21.4760 C.3   138  LEU138      0.1561
     70  C        -10.7900    7.1440   22.2820 C.2   138  LEU138      0.2260
     71  O        -10.4660    6.8060   23.4210 O.2   138  LEU138     -0.2867
     72  CB        -8.9550    7.3090   20.6570 C.3   138  LEU138      0.0270
     73  CG        -7.9710    7.9760   19.7040 C.3   138  LEU138      0.0019
     74  CD1       -7.3460    6.9110   18.7920 C.3   138  LEU138      0.0001
     75  CD2       -8.5930    9.1010   18.8930 C.3   138  LEU138      0.0001
     76  N        -12.3260    3.2810   21.3760 N.3   140  VAL140     -0.1245
     77  CA       -12.3280    2.2720   20.3150 C.3   140  VAL140      0.1561
     78  C        -13.2420    1.1340   20.7880 C.2   140  VAL140      0.2260
     79  O        -12.9920    0.6560   21.8960 O.2   140  VAL140     -0.2867
     80  CB       -10.9370    1.7200   19.9980 C.3   140  VAL140      0.0252
     81  CG1      -11.1020    0.6390   18.9150 C.3   140  VAL140      0.0019
     82  CG2      -10.0050    2.8450   19.5670 C.3   140  VAL140      0.0019
     83  N         -3.1760    2.4260   21.2820 N.3   195  LEU195     -0.1231
     84  CA        -3.2410    1.8550   19.9450 C.3   195  LEU195      0.1693
     85  C         -2.5030    0.5010   20.0130 C.2   195  LEU195      0.2593
     86  O         -1.5210    0.3850   20.7660 O.2   195  LEU195     -0.2718
     87  CB        -2.5840    2.6650   18.8420 C.3   195  LEU195      0.0284
     88  CG        -2.8540    4.1570   18.6940 C.3   195  LEU195      0.0019
     89  CD1       -2.1570    4.6830   17.4370 C.3   195  LEU195      0.0001
     90  CD2       -4.3370    4.4780   18.6550 C.3   195  LEU195      0.0001
     91  N         -2.9490   -0.4880   19.2280 N.am  196  THR196     -0.1939
     92  CA        -2.1740   -1.7240   19.2390 C.3   196  THR196      0.2028
     93  C         -1.1540   -1.7860   18.1030 C.2   196  THR196      0.2642
     94  O         -0.5160   -2.8200   17.8850 O.2   196  THR196     -0.2714
     95  CB        -3.0720   -2.9700   19.1190 C.3   196  THR196      0.1808
     96  OG1       -3.7430   -2.8660   17.8650 O.3   196  THR196     -0.2208
     97  CG2       -4.1020   -3.0420   20.2540 C.3   196  THR196      0.0379
     98  N         -1.0080   -0.7050   17.3530 N.am  197  THR197     -0.1950
     99  CA         0.0290   -0.6000   16.3310 C.3   197  THR197      0.1897
    100  C          0.8420    0.6720   16.6050 C.2   197  THR197      0.2313
    101  O          0.3440    1.6020   17.2580 O.2   197  THR197     -0.2863
    102  CB        -0.5420   -0.5220   14.9020 C.3   197  THR197      0.1794
    103  OG1       -1.2600    0.7300   14.8080 O.3   197  THR197     -0.2208
    104  CG2       -1.5440   -1.6200   14.6080 C.3   197  THR197      0.0378
    105  N         -6.2770    5.7070   24.4050 N.3   204  VAL204     -0.1245
    106  CA        -7.5310    5.0100   24.0370 C.3   204  VAL204      0.1561
    107  C         -8.2900    4.5740   25.2600 C.2   204  VAL204      0.2260
    108  O         -7.7700    3.9860   26.2040 O.2   204  VAL204     -0.2867
    109  CB        -7.2070    3.7700   23.1790 C.3   204  VAL204      0.0252
    110  CG1       -8.4500    2.9430   22.8640 C.3   204  VAL204      0.0019
    111  CG2       -6.5570    4.1660   21.8500 C.3   204  VAL204      0.0019
    112  N        -10.6910    1.7740   25.8300 N.3   206  TRP206     -0.1241
    113  CA       -11.1960    0.6080   25.1280 C.3   206  TRP206      0.1605
    114  C        -12.5720    0.2220   25.6270 C.2   206  TRP206      0.2264
    115  O        -12.8220    0.2590   26.8480 O.2   206  TRP206     -0.2867
    116  CB       -10.2500   -0.5960   25.3480 C.3   206  TRP206      0.0550
    117  CG        -9.0890   -0.4730   24.4000 C.ar  206  TRP206      0.0003
    118  CD1       -7.8780    0.0680   24.6540 C.ar  206  TRP206      0.0946
    119  CD2       -9.0720   -0.9130   23.0290 C.ar  206  TRP206      0.0152
    120  NE1       -7.0890   -0.0020   23.5330 N.ar  206  TRP206     -0.2442
    121  CE2       -7.8040   -0.6010   22.5200 C.ar  206  TRP206      0.0810
    122  CE3      -10.0230   -1.5410   22.2170 C.ar  206  TRP206      0.0012
    123  CZ2       -7.4200   -0.8850   21.2050 C.ar  206  TRP206      0.0191
    124  CZ3       -9.6380   -1.8140   20.9210 C.ar  206  TRP206      0.0001
    125  CH2       -8.3670   -1.4950   20.4280 C.ar  206  TRP206      0.0015
@<TRIPOS>BOND
     1     1     2    1
     2     2     3    1
     3     2     5    1
     4     3     4    2
     5     5     6    1
     6     8     6   ar
     7     8    10   ar
     8     6     7   ar
     9    10     9   ar
    10     7     9   ar
    11    15    12    1
    12    15    16    1
    13    24    21    1
    14    24    25    1
    15    21    20    1
    16    21    22    1
    17    12    13    1
    18    12    11    1
    19    16    17    1
    20    22    23    2
    21    13    14    2
    22    17    18    2
    23    17    19   am
    24    25    26   ar
    25    25    27   ar
    26    26    28   ar
    27    30    31    1
    28    32    31    1
    29    32    33    2
    30    31    34    1
    31    27    29   ar
    32    28    29   ar
    33    43    42    2
    34    64    66   ar
    35    64    62   ar
    36    61    62    1
    37    61    58    1
    38    34    35    1
    39    36    35   ar
    40    36    38   ar
    41    66    67   ar
    42    62    63   ar
    43    35    37   ar
    44    38    39   ar
    45   104   102    1
    46    37    39   ar
    47   103   102    1
    48    57    58    1
    49   102    99    1
    50    40    41    1
    51    67    65   ar
    52    53    52    2
    53    63    65   ar
    54    56    54    1
    55    42    41    1
    56    58    59    1
    57    54    55    1
    58    54    51    1
    59    50    51    1
    60    59    60    2
    61    41    44    1
    62    44    45    1
    63    51    52    1
    64    99   100    1
    65    99    98    1
    66   100   101    2
    67    45    46   ar
    68    45    47   ar
    69    46    48   ar
    70    98    93   am
    71    89    88    1
    72    47    49   ar
    73    48    49   ar
    74    96    95    1
    75    94    93    2
    76    93    92    1
    77    90    88    1
    78    88    87    1
    79    74    73    1
    80    87    84    1
    81    75    73    1
    82    81    80    1
    83    95    92    1
    84    95    97    1
    85    91    92    1
    86    91    85   am
    87    82    80    1
    88    73    72    1
    89    84    85    1
    90    84    83    1
    91    80    77    1
    92    85    86    2
    93    77    78    1
    94    77    76    1
    95   125   124   ar
    96   125   123   ar
    97    72    69    1
    98    78    79    2
    99   124   122   ar
   100   123   121   ar
   101    69    70    1
   102    69    68    1
   103   111   109    1
   104   122   119   ar
   105    70    71    2
   106   121   119   ar
   107   121   120   ar
   108   110   109    1
   109   119   117   ar
   110   109   106    1
   111   120   118   ar
   112   106   105    1
   113   106   107    1
   114   117   118   ar
   115   117   116    1
   116   113   116    1
   117   113   114    1
   118   113   112    1
   119   107   108    2
   120   114   115    2
