@<TRIPOS>MOLECULE
tmp/2osuA00.pdb
 126 118 0 0 0
SMALL
GASTEIGER

@<TRIPOS>ATOM
      1  N         18.5640    9.7850   -3.3790 N.3    34  TYR34      -0.1227
      2  CA        17.9180    8.9560   -2.3600 C.3    34  TYR34       0.1736
      3  C         16.5720    9.5200   -1.8550 C.2    34  TYR34       0.2595
      4  O         15.8400    8.8480   -1.1130 O.2    34  TYR34      -0.2718
      5  CB        18.8960    8.6320   -1.2130 C.3    34  TYR34       0.0548
      6  CG        19.2740    9.8010   -0.3250 C.ar   34  TYR34      -0.0200
      7  CD1       20.1830   10.7750   -0.7580 C.ar   34  TYR34      -0.0009
      8  CD2       18.7330    9.9230    0.9580 C.ar   34  TYR34      -0.0009
      9  CE1       20.5270   11.8510    0.0590 C.ar   34  TYR34       0.0417
     10  CE2       19.0730   10.9920    1.7800 C.ar   34  TYR34       0.0417
     11  CZ        19.9690   11.9490    1.3260 C.ar   34  TYR34       0.1957
     12  OH        20.3050   13.0010    2.1440 O.3    34  TYR34      -0.2866
     13  N         16.2590   10.7530   -2.2620 N.am   35  ILE35      -0.1980
     14  CA        14.8990   11.3050   -2.1490 C.3    35  ILE35       0.1595
     15  C         14.3600   11.5570   -3.5710 C.2    35  ILE35       0.2287
     16  O         14.8070   12.4900   -4.2440 O.2    35  ILE35      -0.2864
     17  CB        14.8460   12.5960   -1.2800 C.3    35  ILE35       0.0276
     18  CG1       15.5470   12.3670    0.0680 C.3    35  ILE35       0.0022
     19  CG2       13.3920   13.0460   -1.0730 C.3    35  ILE35       0.0022
     20  CD1       16.1690   13.6170    0.6970 C.3    35  ILE35       0.0001
     21  N         16.2120   20.9830    4.1330 N.3    68  GLN68      -0.1231
     22  CA        16.9630   19.7680    4.4230 C.3    68  GLN68       0.1698
     23  C         17.8700   19.9830    5.6180 C.2    68  GLN68       0.2592
     24  O         17.3990   20.4700    6.6350 O.2    68  GLN68      -0.2718
     25  CB        17.7140   19.2260    3.1920 C.3    68  GLN68       0.0381
     26  CG        16.7920   18.7530    2.0540 C.3    68  GLN68       0.0905
     27  CD        15.7370   17.7330    2.4920 C.2    68  GLN68       0.2608
     28  OE1       15.9220   17.0170    3.4590 O.2    68  GLN68      -0.2717
     29  NE2       14.6190   17.6870    1.7790 N.am   68  GLN68      -0.0878
     30  N         19.1500   19.6490    5.5060 N.am   69  SER69      -0.1952
     31  CA        20.0640   19.7000    6.6710 C.3    69  SER69       0.1924
     32  C         20.2980   21.0540    7.2600 C.2    69  SER69       0.2314
     33  O         20.7230   21.1390    8.4160 O.2    69  SER69      -0.2863
     34  CB        21.4220   19.1010    6.3660 C.3    69  SER69       0.2116
     35  OG        21.3100   17.7080    6.1850 O.3    69  SER69      -0.2180
     36  N         18.8560   21.5120   10.5010 N.3    72  LYS72      -0.1245
     37  CA        19.4960   20.9470   11.7010 C.3    72  LYS72       0.1561
     38  C         20.0140   22.0280   12.5830 C.2    72  LYS72       0.2260
     39  O         20.0760   21.8560   13.8160 O.2    72  LYS72      -0.2867
     40  CB        20.6040   19.9480   11.3730 C.3    72  LYS72       0.0271
     41  CG        20.1520   18.7870   10.5120 C.3    72  LYS72       0.0035
     42  CD        21.2950   17.9020   10.1120 C.3    72  LYS72       0.0206
     43  CE        20.7680   16.6520    9.4680 C.3    72  LYS72       0.1093
     44  NZ        21.8680   16.0580    8.6780 N.3    72  LYS72      -0.1314
     45  N         22.8840   13.1050   10.8010 N.3   103  ASN103     -0.1240
     46  CA        21.5250   12.5930   10.9210 C.3   103  ASN103      0.1653
     47  C         21.2460   12.0410   12.3190 C.2   103  ASN103      0.2266
     48  O         20.2010   12.3020   12.9140 O.2   103  ASN103     -0.2867
     49  CB        21.3000   11.5070    9.8620 C.3   103  ASN103      0.1155
     50  CG        21.0630   12.0790    8.4450 C.2   103  ASN103      0.2627
     51  OD1       21.2810   13.2650    8.1690 O.2   103  ASN103     -0.2716
     52  ND2       20.5990   11.2220    7.5480 N.am  103  ASN103     -0.0877
     53  N         10.1040   11.1710    1.4210 N.3   146  GLU146     -0.1245
     54  CA        11.1340   10.9140    2.4340 C.3   146  GLU146      0.1567
     55  C         10.5950    9.8780    3.4270 C.2   146  GLU146      0.2260
     56  O         11.2800    8.9170    3.7760 O.2   146  GLU146     -0.2867
     57  CB        11.5190   12.1890    3.2010 C.3   146  GLU146      0.0388
     58  CG        12.3400   13.2750    2.4710 C.3   146  GLU146      0.1160
     59  CD        12.9250   14.3840    3.4410 C.2   146  GLU146      0.3649
     60  OE1       12.1330   15.2200    4.0030 O.co2 146  GLU146     -0.2457
     61  OE2       14.1860   14.4190    3.6280 O.co2 146  GLU146     -0.2457
     62  N         10.5940    6.0540    2.2820 N.3   149  THR149     -0.1203
     63  CA        11.8890    5.4970    1.9040 C.3   149  THR149      0.1994
     64  C         12.9450    5.7190    2.9990 C.2   149  THR149      0.2617
     65  O         14.1380    5.5110    2.7470 O.2   149  THR149     -0.2717
     66  CB        12.4490    6.1550    0.5970 C.3   149  THR149      0.1784
     67  OG1       12.6810    7.5540    0.8320 O.3   149  THR149     -0.2211
     68  CG2       11.5150    5.9770   -0.5890 C.3   149  THR149      0.0376
     69  N         12.5220    6.1210    4.1980 N.am  150  ALA150     -0.1979
     70  CA        13.4600    6.5170    5.2390 C.3   150  ALA150      0.1597
     71  C         14.0100    5.3940    6.1230 C.2   150  ALA150      0.2287
     72  O         14.1090    5.5590    7.3420 O.2   150  ALA150     -0.2864
     73  CB        12.8560    7.6340    6.0990 C.3   150  ALA150      0.0319
     74  N         17.2910    6.3580    8.2250 N.3   153  ASN153     -0.1240
     75  CA        16.9190    7.1530    9.4110 C.3   153  ASN153      0.1653
     76  C         16.1470    6.3920   10.4980 C.2   153  ASN153      0.2266
     77  O         16.3460    6.6460   11.6850 O.2   153  ASN153     -0.2867
     78  CB        16.1470    8.4100    9.0080 C.3   153  ASN153      0.1155
     79  CG        17.0410    9.4560    8.3650 C.2   153  ASN153      0.2627
     80  OD1       18.2690    9.4580    8.5580 O.2   153  ASN153     -0.2716
     81  ND2       16.4330   10.3420    7.5810 N.am  153  ASN153     -0.0877
     82  N         11.6650   15.2230   12.5560 N.3   177  TYR177     -0.1227
     83  CA        12.8860   15.3680   11.8000 C.3   177  TYR177      0.1736
     84  C         12.6030   15.5180   10.3020 C.2   177  TYR177      0.2595
     85  O         13.1260   16.4280    9.6600 O.2   177  TYR177     -0.2718
     86  CB        13.8450   14.1960   12.1030 C.3   177  TYR177      0.0548
     87  CG        15.0710   14.2150   11.2340 C.ar  177  TYR177     -0.0200
     88  CD1       15.2460   13.2540   10.2390 C.ar  177  TYR177     -0.0009
     89  CD2       16.0370   15.2120   11.3830 C.ar  177  TYR177     -0.0009
     90  CE1       16.3580   13.2680    9.4180 C.ar  177  TYR177      0.0417
     91  CE2       17.1710   15.2320   10.5750 C.ar  177  TYR177      0.0417
     92  CZ        17.3270   14.2520    9.5950 C.ar  177  TYR177      0.1957
     93  OH        18.4280   14.2680    8.7500 O.3   177  TYR177     -0.2866
     94  N         11.7630   14.6430    9.7520 N.am  178  LEU178     -0.1980
     95  CA        11.4630   14.6860    8.3130 C.3   178  LEU178      0.1596
     96  C         10.6530   15.9260    7.9070 C.2   178  LEU178      0.2287
     97  O         10.7230   16.3860    6.7690 O.2   178  LEU178     -0.2864
     98  CB        10.8040   13.3790    7.8310 C.3   178  LEU178      0.0297
     99  CG        11.7750   12.1930    7.7170 C.3   178  LEU178      0.0022
    100  CD1       11.1700   11.0520    6.9860 C.3   178  LEU178      0.0001
    101  CD2       13.0950   12.5960    7.0390 C.3   178  LEU178      0.0001
    102  N         13.0970   19.0010    7.7860 N.3   181  CYS181     -0.1235
    103  CA        13.8130   18.8610    6.5310 C.3   181  CYS181      0.1677
    104  C         13.0140   19.3310    5.3390 C.2   181  CYS181      0.2270
    105  O         13.5740   19.7700    4.3650 O.2   181  CYS181     -0.2867
    106  CB        14.3190   17.4300    6.3180 C.3   181  CYS181      0.0956
    107  SG        15.6060   16.9990    7.4750 S.3   181  CYS181     -0.0801
    108  N         29.4660   18.7040    5.7370 N.3   226  TYR226     -0.1241
    109  CA        29.6500   17.2390    5.7670 C.3   226  TYR226      0.1605
    110  C         31.1410   16.8740    5.8690 C.2   226  TYR226      0.2264
    111  O         31.8090   17.2620    6.8230 O.2   226  TYR226     -0.2867
    112  CB        28.9700   16.5680    4.5560 C.3   226  TYR226      0.0534
    113  CG        27.4530   16.6430    4.5570 C.ar  226  TYR226     -0.0201
    114  CD1       26.6800   15.6200    5.1330 C.ar  226  TYR226     -0.0009
    115  CD2       26.7840   17.7450    4.0070 C.ar  226  TYR226     -0.0009
    116  CE1       25.2600   15.6820    5.1510 C.ar  226  TYR226      0.0417
    117  CE2       25.3700   17.8280    4.0230 C.ar  226  TYR226      0.0417
    118  CZ        24.6070   16.7940    4.5910 C.ar  226  TYR226      0.1957
    119  OH        23.2170   16.8790    4.6020 O.3   226  TYR226     -0.2866
    120  N         21.1410   18.7300    1.0870 N.3   244  VAL244     -0.1245
    121  CA        21.0790   17.9630   -0.1690 C.3   244  VAL244      0.1561
    122  C         20.1830   18.5200   -1.2680 C.2   244  VAL244      0.2260
    123  O         20.3410   18.1260   -2.4310 O.2   244  VAL244     -0.2867
    124  CB        20.7050   16.4550    0.0330 C.3   244  VAL244      0.0252
    125  CG1       21.9400   15.6740    0.4690 C.3   244  VAL244      0.0019
    126  CG2       19.5090   16.2860    1.0020 C.3   244  VAL244      0.0019
@<TRIPOS>BOND
     1    16    15    2
     2    15    14    1
     3     1     2    1
     4   123   122    2
     5     2     3    1
     6     2     5    1
     7    13    14    1
     8    13     3   am
     9    14    17    1
    10     3     4    2
    11    17    19    1
    12    17    18    1
    13   122   121    1
    14     5     6    1
    15     7     6   ar
    16     7     9   ar
    17    68    66    1
    18     6     8   ar
    19   121   124    1
    20   121   120    1
    21   124   125    1
    22   124   126    1
    23     9    11   ar
    24    18    20    1
    25    66    67    1
    26    66    63    1
    27     8    10   ar
    28    11    10   ar
    29    11    12    1
    30    53    54    1
    31    29    27   am
    32    63    62    1
    33    63    64    1
    34    26    27    1
    35    26    25    1
    36    54    57    1
    37    54    55    1
    38    58    57    1
    39    58    59    1
    40    27    28    2
    41    65    64    2
    42    64    69   am
    43    25    22    1
    44    55    56    2
    45    59    61   ar
    46    59    60   ar
    47   115   117   ar
    48   115   113   ar
    49   117   118   ar
    50    21    22    1
    51    69    70    1
    52   105   104    2
    53    22    23    1
    54   112   113    1
    55   112   109    1
    56   113   114   ar
    57   118   119    1
    58   118   116   ar
    59   114   116   ar
    60    70    73    1
    61    70    71    1
    62   104   103    1
    63    30    23   am
    64    30    31    1
    65    23    24    2
    66   108   109    1
    67   109   110    1
    68   110   111    2
    69    71    72    2
    70    35    34    1
    71   106   103    1
    72   106   107    1
    73    34    31    1
    74   103   102    1
    75    31    32    1
    76    97    96    2
    77   100    99    1
    78   101    99    1
    79    32    33    2
    80    52    50   am
    81    81    79   am
    82    99    98    1
    83    98    95    1
    84    96    95    1
    85    51    50    2
    86    74    75    1
    87    95    94    1
    88    79    80    2
    89    79    78    1
    90    50    49    1
    91    44    43    1
    92    93    92    1
    93    78    75    1
    94    75    76    1
    95    90    92   ar
    96    90    88   ar
    97    43    42    1
    98    92    91   ar
    99    85    84    2
   100    94    84   am
   101    49    46    1
   102    42    41    1
   103    88    87   ar
   104    84    83    1
   105    76    77    2
   106    36    37    1
   107    41    40    1
   108    91    89   ar
   109    45    46    1
   110    46    47    1
   111    87    89   ar
   112    87    86    1
   113    40    37    1
   114    37    38    1
   115    83    86    1
   116    83    82    1
   117    47    48    2
   118    38    39    2
