@<TRIPOS>MOLECULE
tmp/2oswA00.pdb
 115 113 0 0 0
SMALL
GASTEIGER

@<TRIPOS>ATOM
      1  N         30.5840   54.5920  -18.2650 N.3    24  LYS24      -0.1245
      2  CA        30.8210   53.5470  -19.2690 C.3    24  LYS24       0.1561
      3  C         32.1090   52.7560  -19.0380 C.2    24  LYS24       0.2260
      4  O         32.1200   51.5330  -19.1850 O.2    24  LYS24      -0.2867
      5  CB        30.8850   54.1600  -20.6660 C.3    24  LYS24       0.0271
      6  CG        29.5690   54.7120  -21.1940 C.3    24  LYS24       0.0035
      7  CD        29.8290   55.6030  -22.3930 C.3    24  LYS24       0.0206
      8  CE        28.5390   56.0410  -23.0790 C.3    24  LYS24       0.1093
      9  NZ        28.7990   56.7980  -24.3400 N.3    24  LYS24      -0.1314
     10  N         23.0460   50.1410  -20.1920 N.3    93  HIS93      -0.1241
     11  CA        23.6850   50.8920  -21.2680 C.3    93  HIS93       0.1621
     12  C         24.7690   50.0990  -21.9880 C.2    93  HIS93       0.2264
     13  O         25.5530   49.3910  -21.3590 O.2    93  HIS93      -0.2867
     14  CB        24.2640   52.1990  -20.7340 C.3    93  HIS93       0.0745
     15  CG        24.4950   53.2190  -21.7980 C.ar   93  HIS93       0.0817
     16  ND1       23.5560   54.1720  -22.1320 N.ar   93  HIS93      -0.2268
     17  CD2       25.5500   53.4230  -22.6230 C.ar   93  HIS93       0.1154
     18  CE1       24.0270   54.9250  -23.1080 C.ar   93  HIS93       0.1986
     19  NE2       25.2360   54.4920  -23.4240 N.ar   93  HIS93      -0.2212
     20  N         27.3460   50.7380  -25.7790 N.3    95  ASP95      -0.1239
     21  CA        27.6330   51.2430  -27.1220 C.3    95  ASP95       0.1674
     22  C         28.6950   50.3270  -27.7110 C.2    95  ASP95       0.2266
     23  O         29.6870   50.0320  -27.0510 O.2    95  ASP95      -0.2867
     24  CB        28.1540   52.6750  -27.1100 C.3    95  ASP95       0.1410
     25  CG        27.2190   53.6420  -26.4100 C.2    95  ASP95       0.3668
     26  OD1       26.2870   54.1670  -27.0700 O.co2  95  ASP95      -0.2456
     27  OD2       27.4300   53.8870  -25.2080 O.co2  95  ASP95      -0.2456
     28  N         33.7890   56.7700  -33.9600 N.3   126  TRP126     -0.1241
     29  CA        33.4840   55.6270  -33.0870 C.3   126  TRP126      0.1605
     30  C         32.3030   54.7900  -33.5940 C.2   126  TRP126      0.2264
     31  O         32.3010   53.5680  -33.4450 O.2   126  TRP126     -0.2867
     32  CB        33.2500   56.0650  -31.6280 C.3   126  TRP126      0.0550
     33  CG        31.9410   56.7680  -31.3810 C.ar  126  TRP126      0.0003
     34  CD1       31.7170   58.1140  -31.4060 C.ar  126  TRP126      0.0946
     35  CD2       30.6800   56.1580  -31.0670 C.ar  126  TRP126      0.0152
     36  NE1       30.3970   58.3820  -31.1290 N.ar  126  TRP126     -0.2442
     37  CE2       29.7380   57.1980  -30.9170 C.ar  126  TRP126      0.0810
     38  CE3       30.2580   54.8330  -30.8970 C.ar  126  TRP126      0.0012
     39  CZ2       28.3940   56.9530  -30.6080 C.ar  126  TRP126      0.0191
     40  CZ3       28.9220   54.5910  -30.5940 C.ar  126  TRP126      0.0001
     41  CH2       28.0090   55.6440  -30.4530 C.ar  126  TRP126      0.0015
     42  N         20.0120   50.1730  -24.1700 N.3   180  ASN180     -0.1225
     43  CA        20.4030   51.3720  -24.8990 C.3   180  ASN180      0.1785
     44  C         20.6910   51.0440  -26.3520 C.2   180  ASN180      0.2597
     45  O         21.4100   50.0930  -26.6430 O.2   180  ASN180     -0.2718
     46  CB        21.6610   52.0050  -24.3100 C.3   180  ASN180      0.1169
     47  CG        22.0280   53.2960  -25.0040 C.2   180  ASN180      0.2627
     48  OD1       21.2760   54.2600  -24.9430 O.2   180  ASN180     -0.2716
     49  ND2       23.1860   53.3230  -25.6800 N.am  180  ASN180     -0.0877
     50  N         20.1120   51.8440  -27.2470 N.am  181  GLU181     -0.1979
     51  CA        20.4080   51.8120  -28.6860 C.3   181  GLU181      0.1602
     52  C         20.6690   50.4170  -29.2470 C.2   181  GLU181      0.2287
     53  O         21.7730   50.1200  -29.7290 O.2   181  GLU181     -0.2864
     54  CB        21.5330   52.7970  -29.0180 C.3   181  GLU181      0.0415
     55  CG        21.1390   54.2310  -28.6430 C.3   181  GLU181      0.1163
     56  CD        21.8320   55.3080  -29.4580 C.2   181  GLU181      0.3649
     57  OE1       22.8950   55.0300  -30.0650 O.co2 181  GLU181     -0.2457
     58  OE2       21.3100   56.4490  -29.4730 O.co2 181  GLU181     -0.2457
     59  N         16.7870   56.7790  -34.9440 N.3   227  ASN227     -0.1240
     60  CA        17.3340   58.0110  -34.3440 C.3   227  ASN227      0.1653
     61  C         17.2400   59.2060  -35.2870 C.2   227  ASN227      0.2266
     62  O         17.1030   60.3510  -34.8430 O.2   227  ASN227     -0.2867
     63  CB        18.8170   57.8420  -33.9670 C.3   227  ASN227      0.1155
     64  CG        19.0290   57.1730  -32.6150 C.2   227  ASN227      0.2627
     65  OD1       18.0950   56.6880  -31.9780 O.2   227  ASN227     -0.2716
     66  ND2       20.2890   57.1420  -32.1750 N.am  227  ASN227     -0.0877
     67  N         18.4030   62.0010  -32.8890 N.3   254  TYR254     -0.1241
     68  CA        19.6960   62.5180  -33.3220 C.3   254  TYR254      0.1605
     69  C         19.6680   62.8130  -34.8300 C.2   254  TYR254      0.2264
     70  O         20.1060   61.9940  -35.6420 O.2   254  TYR254     -0.2867
     71  CB        20.8030   61.5300  -32.9600 C.3   254  TYR254      0.0534
     72  CG        21.1860   61.5350  -31.4880 C.ar  254  TYR254     -0.0201
     73  CD1       21.8000   62.6440  -30.9130 C.ar  254  TYR254     -0.0009
     74  CD2       20.9500   60.4210  -30.6770 C.ar  254  TYR254     -0.0009
     75  CE1       22.1550   62.6550  -29.5620 C.ar  254  TYR254      0.0417
     76  CE2       21.3070   60.4180  -29.3300 C.ar  254  TYR254      0.0417
     77  CZ        21.9180   61.5340  -28.7800 C.ar  254  TYR254      0.1957
     78  OH        22.2880   61.5300  -27.4500 O.3   254  TYR254     -0.2866
     79  N         17.1930   60.0990  -25.0810 N.3   294  GLU294     -0.1245
     80  CA        18.3500   60.9310  -25.4050 C.3   294  GLU294      0.1567
     81  C         18.0420   61.8650  -26.5510 C.2   294  GLU294      0.2260
     82  O         17.4000   61.4820  -27.5280 O.2   294  GLU294     -0.2867
     83  CB        19.5610   60.1140  -25.8550 C.3   294  GLU294      0.0388
     84  CG        20.1030   59.1050  -24.8820 C.3   294  GLU294      0.1160
     85  CD        21.4090   58.4860  -25.3870 C.2   294  GLU294      0.3649
     86  OE1       22.0830   59.1140  -26.2360 O.co2 294  GLU294     -0.2457
     87  OE2       21.7430   57.3830  -24.9230 O.co2 294  GLU294     -0.2457
     88  N         21.0190   64.2490  -23.2560 N.3   325  TRP325     -0.1241
     89  CA        22.3780   63.6760  -23.2910 C.3   325  TRP325      0.1605
     90  C         23.4120   64.8060  -23.3490 C.2   325  TRP325      0.2264
     91  O         23.5690   65.4260  -24.3990 O.2   325  TRP325     -0.2867
     92  CB        22.5680   62.7590  -24.5100 C.3   325  TRP325      0.0550
     93  CG        23.9110   62.1060  -24.4660 C.ar  325  TRP325      0.0003
     94  CD1       25.0820   62.5870  -24.9760 C.ar  325  TRP325      0.0946
     95  CD2       24.2260   60.8670  -23.8330 C.ar  325  TRP325      0.0152
     96  NE1       26.1140   61.7180  -24.6960 N.ar  325  TRP325     -0.2442
     97  CE2       25.6150   60.6540  -23.9950 C.ar  325  TRP325      0.0810
     98  CE3       23.4730   59.9190  -23.1320 C.ar  325  TRP325      0.0012
     99  CZ2       26.2550   59.5250  -23.4980 C.ar  325  TRP325      0.0191
    100  CZ3       24.1110   58.8050  -22.6370 C.ar  325  TRP325      0.0001
    101  CH2       25.4920   58.6200  -22.8160 C.ar  325  TRP325      0.0015
    102  N         28.3870   69.9870  -24.7610 N.3   332  TRP332     -0.1241
    103  CA        27.0580   69.3720  -24.9050 C.3   332  TRP332      0.1605
    104  C         26.2270   69.5060  -23.6290 C.2   332  TRP332      0.2264
    105  O         24.9890   69.4980  -23.6760 O.2   332  TRP332     -0.2867
    106  CB        27.1680   67.8800  -25.2010 C.3   332  TRP332      0.0550
    107  CG        27.4690   67.4950  -26.5960 C.ar  332  TRP332      0.0003
    108  CD1       28.5160   67.9170  -27.3710 C.ar  332  TRP332      0.0946
    109  CD2       26.7470   66.5410  -27.3790 C.ar  332  TRP332      0.0152
    110  NE1       28.4710   67.2940  -28.6010 N.ar  332  TRP332     -0.2442
    111  CE2       27.3920   66.4470  -28.6290 C.ar  332  TRP332      0.0810
    112  CE3       25.6020   65.7650  -27.1470 C.ar  332  TRP332      0.0012
    113  CZ2       26.9290   65.6080  -29.6460 C.ar  332  TRP332      0.0191
    114  CZ3       25.1480   64.9290  -28.1530 C.ar  332  TRP332      0.0001
    115  CH2       25.8050   64.8610  -29.3880 C.ar  332  TRP332      0.0015
@<TRIPOS>BOND
     1    70    69    2
     2    61    62    2
     3    61    60    1
     4    59    60    1
     5    69    68    1
     6    60    63    1
     7    63    64    1
     8    28    29    1
     9    30    31    2
    10    30    29    1
    11    68    71    1
    12    68    67    1
    13    29    32    1
    14    71    72    1
    15    64    66   am
    16    64    65    2
    17    32    33    1
    18    72    73   ar
    19    72    74   ar
    20    34    33   ar
    21    34    36   ar
    22    33    35   ar
    23    36    37   ar
    24    35    37   ar
    25    35    38   ar
    26    37    39   ar
    27    73    75   ar
    28    38    40   ar
    29    74    76   ar
    30    39    41   ar
    31    40    41   ar
    32    57    56   ar
    33    53    52    2
    34   113   115   ar
    35   113   111   ar
    36    75    77   ar
    37    58    56   ar
    38    56    55    1
    39   115   114   ar
    40    76    77   ar
    41    52    51    1
    42    54    51    1
    43    54    55    1
    44    77    78    1
    45    51    50    1
    46   111   110   ar
    47   111   109   ar
    48   110   108   ar
    49   114   112   ar
    50    22    21    1
    51    22    23    2
    52    82    81    2
    53   109   112   ar
    54   109   107   ar
    55   108   107   ar
    56    50    44   am
    57    21    24    1
    58    21    20    1
    59    24    25    1
    60    26    25   ar
    61    45    44    2
    62   107   106    1
    63    81    80    1
    64    25    27   ar
    65    44    43    1
    66    86    85   ar
    67    83    80    1
    68    83    84    1
    69    49    47   am
    70    80    79    1
    71    85    87   ar
    72    85    84    1
    73   106   103    1
    74    47    48    2
    75    47    46    1
    76    94    96   ar
    77    94    93   ar
    78   103   102    1
    79   103   104    1
    80    43    46    1
    81    43    42    1
    82    96    97   ar
    83    92    93    1
    84    92    89    1
    85    93    95   ar
    86    91    90    2
    87     9     8    1
    88    97    95   ar
    89    97    99   ar
    90    95    98   ar
    91   105   104    2
    92    99   101   ar
    93    19    18   ar
    94    19    17   ar
    95    90    89    1
    96    89    88    1
    97    98   100   ar
    98    18    16   ar
    99     8     7    1
   100   101   100   ar
   101    17    15   ar
   102     7     6    1
   103    16    15   ar
   104    12    13    2
   105    12    11    1
   106    15    14    1
   107    11    14    1
   108    11    10    1
   109     6     5    1
   110     5     2    1
   111     2     3    1
   112     2     1    1
   113     4     3    2
