@<TRIPOS>MOLECULE
tmp/2osxA01.pdb
 170 166 0 0 0
SMALL
GASTEIGER

@<TRIPOS>ATOM
      1  N         23.0660    3.2360    9.0380 N.3    96  ASP96      -0.1239
      2  CA        23.8170    2.4300    8.0730 C.3    96  ASP96       0.1674
      3  C         23.4850    2.9890    6.7240 C.2    96  ASP96       0.2266
      4  O         22.3290    3.2670    6.4070 O.2    96  ASP96      -0.2867
      5  CB        23.4610    0.9500    8.0960 C.3    96  ASP96       0.1410
      6  CG        23.5890    0.3070    9.4620 C.2    96  ASP96       0.3668
      7  OD1       24.7020   -0.1890    9.8160 O.co2  96  ASP96      -0.2456
      8  OD2       22.5640    0.2910   10.2070 O.co2  96  ASP96      -0.2456
      9  N         24.2420   -7.2960   -1.5080 N.3   136  ARG136     -0.1231
     10  CA        24.2980   -7.2770   -0.0550 C.3   136  ARG136      0.1694
     11  C         24.3900   -5.8280    0.3820 C.2   136  ARG136      0.2592
     12  O         24.8480   -4.9680   -0.3930 O.2   136  ARG136     -0.2718
     13  CB        25.3850   -8.1910    0.4950 C.3   136  ARG136      0.0321
     14  CG        26.7670   -7.8660    0.0490 C.3   136  ARG136      0.0489
     15  CD        27.7610   -8.9150    0.6050 C.3   136  ARG136      0.2205
     16  NE        27.9020   -8.7650    2.0610 N.pl3 136  ARG136     -0.0865
     17  CZ        28.7180   -9.4660    2.8480 C.cat 136  ARG136      0.5346
     18  NH1       29.4800  -10.4260    2.3520 N.pl3 136  ARG136      0.1354
     19  NH2       28.7860   -9.1810    4.1360 N.pl3 136  ARG136      0.1354
     20  N         23.9290   -5.5480    1.5900 N.am  137  TRP137     -0.1962
     21  CA        23.6360   -4.1640    1.9590 C.3   137  TRP137      0.1771
     22  C         24.8800   -3.3030    2.0460 C.2   137  TRP137      0.2620
     23  O         24.8290   -2.0940    1.8050 O.2   137  TRP137     -0.2715
     24  CB        22.8090   -4.0850    3.2610 C.3   137  TRP137      0.0590
     25  CG        23.5350   -4.4540    4.5060 C.ar  137  TRP137      0.0006
     26  CD1       23.5160   -5.6700    5.1640 C.ar  137  TRP137      0.0946
     27  CD2       24.3940   -3.6000    5.2680 C.ar  137  TRP137      0.0152
     28  NE1       24.3250   -5.6110    6.2780 N.ar  137  TRP137     -0.2442
     29  CE2       24.8790   -4.3560    6.3570 C.ar  137  TRP137      0.0810
     30  CE3       24.7870   -2.2530    5.1590 C.ar  137  TRP137      0.0012
     31  CZ2       25.7720   -3.8190    7.2910 C.ar  137  TRP137      0.0191
     32  CZ3       25.6730   -1.7330    6.0980 C.ar  137  TRP137      0.0001
     33  CH2       26.1440   -2.5100    7.1390 C.ar  137  TRP137      0.0015
     34  N         26.0010   -3.9170    2.3980 N.am  138  GLU138     -0.1963
     35  CA        27.2010   -3.1180    2.6400 C.3   138  GLU138      0.1733
     36  C         27.6800   -2.4180    1.3700 C.2   138  GLU138      0.2616
     37  O         28.3260   -1.3760    1.4190 O.2   138  GLU138     -0.2715
     38  CB        28.3230   -3.9730    3.2110 C.3   138  GLU138      0.0429
     39  CG        27.9520   -4.7490    4.4830 C.3   138  GLU138      0.1163
     40  CD        27.3280   -6.1170    4.2500 C.2   138  GLU138      0.3649
     41  OE1       26.8590   -6.4370    3.1500 O.co2 138  GLU138     -0.2457
     42  OE2       27.3360   -6.9270    5.2020 O.co2 138  GLU138     -0.2457
     43  N         27.3800   -3.0250    0.2190 N.am  139  LEU139     -0.1977
     44  CA        27.7640   -2.4450   -1.0670 C.3   139  LEU139      0.1596
     45  C         27.0810   -1.1170   -1.3520 C.2   139  LEU139      0.2287
     46  O         27.5670   -0.3620   -2.2040 O.2   139  LEU139     -0.2864
     47  CB        27.4780   -3.4370   -2.1860 C.3   139  LEU139      0.0297
     48  CG        28.4370   -4.6180   -2.2550 C.3   139  LEU139      0.0022
     49  CD1       27.8940   -5.7280   -3.1590 C.3   139  LEU139      0.0001
     50  CD2       29.8050   -4.1410   -2.7490 C.3   139  LEU139      0.0001
     51  N         27.3020    1.3950    0.4560 N.3   141  TYR141     -0.1227
     52  CA        28.2010    2.4520    0.8810 C.3   141  TYR141      0.1736
     53  C         28.9420    3.1160   -0.2830 C.2   141  TYR141      0.2595
     54  O         29.2650    4.3030   -0.1960 O.2   141  TYR141     -0.2718
     55  CB        29.2210    1.9580    1.9180 C.3   141  TYR141      0.0548
     56  CG        28.7390    2.0820    3.3510 C.ar  141  TYR141     -0.0200
     57  CD1       28.4570    3.3220    3.8980 C.ar  141  TYR141     -0.0009
     58  CD2       28.5680    0.9610    4.1540 C.ar  141  TYR141     -0.0009
     59  CE1       28.0120    3.4490    5.1970 C.ar  141  TYR141      0.0417
     60  CE2       28.1290    1.0740    5.4710 C.ar  141  TYR141      0.0417
     61  CZ        27.8350    2.3230    5.9840 C.ar  141  TYR141      0.1957
     62  OH        27.3510    2.5060    7.2640 O.3   141  TYR141     -0.2866
     63  N         29.2770    2.3300   -1.3160 N.am  142  ILE142     -0.1980
     64  CA        30.0590    2.8610   -2.4310 C.3   142  ILE142      0.1595
     65  C         29.2190    3.2270   -3.6480 C.2   142  ILE142      0.2287
     66  O         29.7600    3.5300   -4.7080 O.2   142  ILE142     -0.2864
     67  CB        31.2500    1.9580   -2.7880 C.3   142  ILE142      0.0276
     68  CG1       30.7950    0.5800   -3.2700 C.3   142  ILE142      0.0022
     69  CG2       32.2120    1.8660   -1.5890 C.3   142  ILE142      0.0022
     70  CD1       31.8810   -0.2850   -3.8820 C.3   142  ILE142      0.0001
     71  N         29.4710    3.5060   13.0630 N.3   192  GLU192     -0.1245
     72  CA        30.2650    3.2070   11.8580 C.3   192  GLU192      0.1567
     73  C         30.4140    4.4030   10.9180 C.2   192  GLU192      0.2260
     74  O         29.9840    4.3870    9.7560 O.2   192  GLU192     -0.2867
     75  CB        29.7350    1.9700   11.1750 C.3   192  GLU192      0.0388
     76  CG        29.9010    0.7830   12.1240 C.3   192  GLU192      0.1160
     77  CD        29.6570   -0.5740   11.5410 C.2   192  GLU192      0.3649
     78  OE1       28.9300   -0.7030   10.5350 O.co2 192  GLU192     -0.2457
     79  OE2       30.2180   -1.5360   12.1230 O.co2 192  GLU192     -0.2457
     80  N         31.5880    6.7400    8.1160 N.3   194  PHE194     -0.1241
     81  CA        32.0660    6.4930    6.7680 C.3   194  PHE194      0.1605
     82  C         32.3260    7.8280    6.1080 C.2   194  PHE194      0.2264
     83  O         31.4760    8.7030    6.1560 O.2   194  PHE194     -0.2867
     84  CB        31.0140    5.6960    5.9950 C.3   194  PHE194      0.0534
     85  CG        31.4140    5.3510    4.5820 C.ar  194  PHE194     -0.0203
     86  CD1       32.3960    4.4020    4.3170 C.ar  194  PHE194     -0.0042
     87  CD2       30.7820    5.9490    3.5180 C.ar  194  PHE194     -0.0042
     88  CE1       32.7320    4.0570    3.0310 C.ar  194  PHE194     -0.0003
     89  CE2       31.1090    5.6050    2.1890 C.ar  194  PHE194     -0.0003
     90  CZ        32.0810    4.6550    1.9610 C.ar  194  PHE194     -0.0000
     91  N         34.7670    2.8910   10.2780 N.3   234  ALA234     -0.1231
     92  CA        34.5410    1.4560   10.3430 C.3   234  ALA234      0.1694
     93  C         35.2390    0.7030    9.2280 C.2   234  ALA234      0.2591
     94  O         35.8570   -0.3420    9.4690 O.2   234  ALA234     -0.2718
     95  CB        33.0630    1.1500   10.3660 C.3   234  ALA234      0.0304
     96  N         35.1270    1.1840    7.9930 N.am  235  ILE235     -0.1980
     97  CA        35.7010    0.4500    6.8740 C.3   235  ILE235      0.1595
     98  C         37.2060    0.2900    7.1140 C.2   235  ILE235      0.2287
     99  O         37.9080    1.2460    7.4470 O.2   235  ILE235     -0.2864
    100  CB        35.3830    1.1190    5.5230 C.3   235  ILE235      0.0276
    101  CG1       35.8250    0.2130    4.3770 C.3   235  ILE235      0.0022
    102  CG2       35.9500    2.5340    5.4010 C.3   235  ILE235      0.0022
    103  CD1       35.3780    0.7350    2.9900 C.3   235  ILE235      0.0001
    104  N         37.3250   -2.0050   11.1990 N.3   238  ASN238     -0.1225
    105  CA        36.5570   -3.1630   11.6260 C.3   238  ASN238      0.1785
    106  C         37.2460   -4.4770   11.3070 C.2   238  ASN238      0.2597
    107  O         37.0250   -5.4940   11.9800 O.2   238  ASN238     -0.2718
    108  CB        35.1810   -3.1980   10.9300 C.3   238  ASN238      0.1169
    109  CG        34.1250   -2.3460   11.6090 C.2   238  ASN238      0.2627
    110  OD1       34.3920   -1.6080   12.5460 O.2   238  ASN238     -0.2716
    111  ND2       32.8810   -2.4920   11.1470 N.am  238  ASN238     -0.0877
    112  N         37.9920   -4.4860   10.2010 N.am  239  GLN239     -0.1979
    113  CA        38.6570   -5.6500    9.6370 C.3   239  GLN239      0.1601
    114  C         40.1210   -5.7600   10.0850 C.2   239  GLN239      0.2287
    115  O         40.8390   -6.6070    9.5900 O.2   239  GLN239     -0.2864
    116  CB        38.5440   -5.5970    8.1050 C.3   239  GLN239      0.0394
    117  CG        37.1300   -5.8040    7.5780 C.3   239  GLN239      0.0908
    118  CD        36.2380   -4.5690    7.6570 C.2   239  GLN239      0.2608
    119  OE1       36.7080   -3.4380    7.6800 O.2   239  GLN239     -0.2717
    120  NE2       34.9120   -4.7880    7.6650 N.am  239  GLN239     -0.0878
    121  N         34.6970   -6.9200   12.9250 N.3   265  TYR265     -0.1241
    122  CA        34.0620   -7.7330   11.8680 C.3   265  TYR265      0.1605
    123  C         35.1680   -8.2710   10.9510 C.2   265  TYR265      0.2264
    124  O         35.4500   -7.7030    9.9070 O.2   265  TYR265     -0.2867
    125  CB        33.0110   -6.8970   11.1190 C.3   265  TYR265      0.0534
    126  CG        31.7650   -6.7490   11.9440 C.ar  265  TYR265     -0.0201
    127  CD1       30.8020   -7.7490   11.9450 C.ar  265  TYR265     -0.0009
    128  CD2       31.5750   -5.6450   12.7690 C.ar  265  TYR265     -0.0009
    129  CE1       29.6850   -7.6610   12.7540 C.ar  265  TYR265      0.0417
    130  CE2       30.4450   -5.5300   13.5860 C.ar  265  TYR265      0.0417
    131  CZ        29.5060   -6.5560   13.5590 C.ar  265  TYR265      0.1957
    132  OH        28.3760   -6.5380   14.3490 O.3   265  TYR265     -0.2866
    133  N         37.2020   -9.9420    8.1590 N.3   267  LEU267     -0.1245
    134  CA        36.8460  -10.2440    6.7840 C.3   267  LEU267      0.1561
    135  C         36.8730  -11.7490    6.4730 C.2   267  LEU267      0.2260
    136  O         36.0010  -12.2440    5.7630 O.2   267  LEU267     -0.2867
    137  CB        37.7430   -9.4640    5.8160 C.3   267  LEU267      0.0270
    138  CG        37.3040   -9.4770    4.3550 C.3   267  LEU267      0.0019
    139  CD1       35.9000   -8.9390    4.1980 C.3   267  LEU267      0.0001
    140  CD2       38.2880   -8.6880    3.5190 C.3   267  LEU267      0.0001
    141  N         33.6530  -13.5110    7.3590 N.3   270  ASP270     -0.1225
    142  CA        32.5620  -13.1660    6.4570 C.3   270  ASP270      0.1805
    143  C         32.7110  -13.9150    5.1280 C.2   270  ASP270      0.2597
    144  O         31.8280  -14.6980    4.7460 O.2   270  ASP270     -0.2718
    145  CB        32.5320  -11.6450    6.2920 C.3   270  ASP270      0.1424
    146  CG        31.2930  -11.1630    5.5650 C.2   270  ASP270      0.3668
    147  OD1       30.8920  -11.7970    4.5560 O.co2 270  ASP270     -0.2456
    148  OD2       30.6860  -10.1460    6.0130 O.co2 270  ASP270     -0.2456
    149  N         33.8330  -13.7140    4.4440 N.am  271  ILE271     -0.1980
    150  CA        34.0720  -14.3190    3.1270 C.3   271  ILE271      0.1595
    151  C         34.1500  -15.8410    3.2000 C.2   271  ILE271      0.2287
    152  O         33.6880  -16.5440    2.2860 O.2   271  ILE271     -0.2864
    153  CB        35.3680  -13.7530    2.4870 C.3   271  ILE271      0.0276
    154  CG1       35.2660  -12.2290    2.3070 C.3   271  ILE271      0.0022
    155  CG2       35.6560  -14.4410    1.1460 C.3   271  ILE271      0.0022
    156  CD1       33.8780  -11.7190    1.9170 C.3   271  ILE271      0.0001
    157  N         21.7960  -15.0590   14.0540 N.3   348  TRP348     -0.1241
    158  CA        22.8240  -14.2310   14.7010 C.3   348  TRP348      0.1605
    159  C         22.5560  -13.9910   16.1670 C.2   348  TRP348      0.2264
    160  O         23.4830  -13.7710   16.9200 O.2   348  TRP348     -0.2867
    161  CB        22.9280  -12.8680   14.0360 C.3   348  TRP348      0.0550
    162  CG        23.6330  -12.7960   12.7090 C.ar  348  TRP348      0.0003
    163  CD1       23.3330  -13.4540   11.5400 C.ar  348  TRP348      0.0946
    164  CD2       24.7270  -11.9260   12.4100 C.ar  348  TRP348      0.0152
    165  NE1       24.1980  -13.0570   10.5540 N.ar  348  TRP348     -0.2442
    166  CE2       25.0450  -12.1080   11.0540 C.ar  348  TRP348      0.0810
    167  CE3       25.4590  -10.9880   13.1590 C.ar  348  TRP348      0.0012
    168  CZ2       26.0940  -11.4030   10.4330 C.ar  348  TRP348      0.0191
    169  CZ3       26.4610  -10.2680   12.5360 C.ar  348  TRP348      0.0001
    170  CH2       26.7760  -10.4860   11.2070 C.ar  348  TRP348      0.0015
@<TRIPOS>BOND
     1    66    65    2
     2    70    68    1
     3    65    64    1
     4    68    67    1
     5    49    48    1
     6    67    64    1
     7    67    69    1
     8    50    48    1
     9    64    63    1
    10    48    47    1
    11    46    45    2
    12    47    44    1
    13     9    10    1
    14    45    44    1
    15    63    53   am
    16    44    43    1
    17    12    11    2
    18    53    54    2
    19    53    52    1
    20    10    11    1
    21    10    13    1
    22    14    13    1
    23    14    15    1
    24    43    36   am
    25    11    20   am
    26    51    52    1
    27    15    16    1
    28    52    55    1
    29   155   153    1
    30    36    37    2
    31    36    35    1
    32    20    21    1
    33    23    22    2
    34   156   154    1
    35    55    56    1
    36    21    22    1
    37    21    24    1
    38    90    89   ar
    39    90    88   ar
    40    22    34   am
    41    16    17    2
    42    89    87   ar
    43   152   151    2
    44   154   153    1
    45    18    17    1
    46    34    35    1
    47   153   150    1
    48    35    38    1
    49    17    19    1
    50   103   101    1
    51    88    86   ar
    52   150   151    1
    53   150   149    1
    54    41    40   ar
    55    38    39    1
    56    24    25    1
    57    56    57   ar
    58    56    58   ar
    59    87    85   ar
    60   140   138    1
    61    57    59   ar
    62    58    60   ar
    63   139   138    1
    64    40    39    1
    65    40    42   ar
    66    86    85   ar
    67   138   137    1
    68   101   100    1
    69   149   143   am
    70    25    26   ar
    71    25    27   ar
    72   147   146   ar
    73    85    84    1
    74   144   143    2
    75   143   142    1
    76    30    27   ar
    77    30    32   ar
    78    26    28   ar
    79    59    61   ar
    80    27    29   ar
    81   102   100    1
    82    60    61   ar
    83   100    97    1
    84   146   148   ar
    85   146   145    1
    86   136   135    2
    87   137   134    1
    88    61    62    1
    89    84    81    1
    90    32    33   ar
    91    82    83    2
    92    82    81    1
    93    28    29   ar
    94   145   142    1
    95    29    31   ar
    96     4     3    2
    97   142   141    1
    98   135   134    1
    99     3     2    1
   100    81    80    1
   101   134   133    1
   102    97    98    1
   103    97    96    1
   104    98    99    2
   105    33    31   ar
   106   117   118    1
   107   117   116    1
   108   118   120   am
   109   118   119    2
   110    96    93   am
   111     2     5    1
   112     2     1    1
   113     5     6    1
   114   116   113    1
   115    93    94    2
   116    93    92    1
   117     6     7   ar
   118     6     8   ar
   119   115   114    2
   120   113   114    1
   121   113   112    1
   122    74    73    2
   123   124   123    2
   124   112   106   am
   125    91    92    1
   126    92    95    1
   127   168   166   ar
   128   168   170   ar
   129    78    77   ar
   130   165   166   ar
   131   165   163   ar
   132    73    72    1
   133   108   109    1
   134   108   105    1
   135   123   122    1
   136   166   164   ar
   137   125   122    1
   138   125   126    1
   139   111   109   am
   140    75    72    1
   141    75    76    1
   142   104   105    1
   143   170   169   ar
   144   106   105    1
   145   106   107    2
   146   163   162   ar
   147    77    79   ar
   148    77    76    1
   149   109   110    2
   150    72    71    1
   151   122   121    1
   152   126   127   ar
   153   126   128   ar
   154   127   129   ar
   155   164   162   ar
   156   164   167   ar
   157   169   167   ar
   158   162   161    1
   159   129   131   ar
   160   128   130   ar
   161   131   130   ar
   162   131   132    1
   163   161   158    1
   164   157   158    1
   165   158   159    1
   166   159   160    2
