@<TRIPOS>MOLECULE
tmp/2osxA00.pdb
 187 184 0 0 0
SMALL
GASTEIGER

@<TRIPOS>ATOM
      1  N         18.0180   -3.7330   15.7960 N.3    22  SER22      -0.1217
      2  CA        17.9800   -3.3530   14.3960 C.3    22  SER22       0.1889
      3  C         16.5520   -3.0650   13.9150 C.2    22  SER22       0.2288
      4  O         16.3430   -2.2690   12.9980 O.2    22  SER22      -0.2866
      5  CB        18.6510   -4.4490   13.5720 C.3    22  SER22       0.2089
      6  OG        19.0110   -3.9990   12.2850 O.3    22  SER22      -0.2183
      7  N         15.3980    0.5800   13.3340 N.3    25  LYS25      -0.1245
      8  CA        15.8580    1.3560   12.1880 C.3    25  LYS25       0.1561
      9  C         14.7020    1.7830   11.2910 C.2    25  LYS25       0.2260
     10  O         14.7150    2.8840   10.7360 O.2    25  LYS25      -0.2867
     11  CB        16.8450    0.5270   11.3660 C.3    25  LYS25       0.0271
     12  CG        18.1460    0.2040   12.0460 C.3    25  LYS25       0.0035
     13  CD        18.9120   -0.8210   11.2490 C.3    25  LYS25       0.0206
     14  CE        20.2860   -1.1290   11.8270 C.3    25  LYS25       0.1093
     15  NZ        21.0070   -2.1030   10.9790 N.3    25  LYS25      -0.1314
     16  N         22.3800    5.8030   15.5440 N.3    94  HIS94      -0.1241
     17  CA        22.6820    4.7390   14.6070 C.3    94  HIS94       0.1621
     18  C         22.3250    5.1520   13.1900 C.2    94  HIS94       0.2264
     19  O         21.2600    5.7150   12.9120 O.2    94  HIS94      -0.2867
     20  CB        21.9200    3.4920   14.9890 C.3    94  HIS94       0.0745
     21  CG        22.4730    2.2710   14.3380 C.ar   94  HIS94       0.0817
     22  ND1       23.4060    1.4620   14.9670 N.ar   94  HIS94      -0.2268
     23  CD2       22.2610    1.7580   13.0930 C.ar   94  HIS94       0.1154
     24  CE1       23.7360    0.4960   14.1200 C.ar   94  HIS94       0.1986
     25  NE2       23.0590    0.6500   12.9870 N.ar   94  HIS94      -0.2212
     26  N         23.0660    3.2360    9.0380 N.3    96  ASP96      -0.1239
     27  CA        23.8170    2.4300    8.0730 C.3    96  ASP96       0.1674
     28  C         23.4850    2.9890    6.7240 C.2    96  ASP96       0.2266
     29  O         22.3290    3.2670    6.4070 O.2    96  ASP96      -0.2867
     30  CB        23.4610    0.9500    8.0960 C.3    96  ASP96       0.1410
     31  CG        23.5890    0.3070    9.4620 C.2    96  ASP96       0.3668
     32  OD1       24.7020   -0.1890    9.8160 O.co2  96  ASP96      -0.2456
     33  OD2       22.5640    0.2910   10.2070 O.co2  96  ASP96      -0.2456
     34  N         14.7590   -0.1770    6.6480 N.3   114  ALA114     -0.1231
     35  CA        15.2460   -1.4650    7.0900 C.3   114  ALA114      0.1694
     36  C         16.6980   -1.6850    6.7090 C.2   114  ALA114      0.2591
     37  O         17.3930   -2.4400    7.3860 O.2   114  ALA114     -0.2718
     38  CB        14.3770   -2.5660    6.4740 C.3   114  ALA114      0.0304
     39  N         17.1380   -1.0560    5.6170 N.am  115  ILE115     -0.1980
     40  CA        18.4970   -1.2090    5.1020 C.3   115  ILE115      0.1595
     41  C         19.2210    0.1010    5.3470 C.2   115  ILE115      0.2287
     42  O         19.8320    0.2720    6.4210 O.2   115  ILE115     -0.2864
     43  CB        18.5110   -1.6900    3.6430 C.3   115  ILE115      0.0276
     44  CG1       17.7410   -3.0130    3.5210 C.3   115  ILE115      0.0022
     45  CG2       19.9390   -1.8490    3.1560 C.3   115  ILE115      0.0022
     46  CD1       18.2690   -4.1650    4.3710 C.3   115  ILE115      0.0001
     47  N         19.3570    3.6580    6.8450 N.3   117  ASN117     -0.1240
     48  CA        18.6600    4.1880    8.0170 C.3   117  ASN117      0.1653
     49  C         19.5110    5.2480    8.6670 C.2   117  ASN117      0.2266
     50  O         20.7420    5.1650    8.6170 O.2   117  ASN117     -0.2867
     51  CB        18.3280    3.0730    9.0390 C.3   117  ASN117      0.1155
     52  CG        19.5620    2.4820    9.7060 C.2   117  ASN117      0.2627
     53  OD1       19.9250    2.8890   10.8060 O.2   117  ASN117     -0.2716
     54  ND2       20.2240    1.5440    9.0330 N.am  117  ASN117     -0.0877
     55  N         24.2420   -7.2960   -1.5080 N.3   136  ARG136     -0.1231
     56  CA        24.2980   -7.2770   -0.0550 C.3   136  ARG136      0.1694
     57  C         24.3900   -5.8280    0.3820 C.2   136  ARG136      0.2592
     58  O         24.8480   -4.9680   -0.3930 O.2   136  ARG136     -0.2718
     59  CB        25.3850   -8.1910    0.4950 C.3   136  ARG136      0.0321
     60  CG        26.7670   -7.8660    0.0490 C.3   136  ARG136      0.0489
     61  CD        27.7610   -8.9150    0.6050 C.3   136  ARG136      0.2205
     62  NE        27.9020   -8.7650    2.0610 N.pl3 136  ARG136     -0.0865
     63  CZ        28.7180   -9.4660    2.8480 C.cat 136  ARG136      0.5346
     64  NH1       29.4800  -10.4260    2.3520 N.pl3 136  ARG136      0.1354
     65  NH2       28.7860   -9.1810    4.1360 N.pl3 136  ARG136      0.1354
     66  N         23.9290   -5.5480    1.5900 N.am  137  TRP137     -0.1962
     67  CA        23.6360   -4.1640    1.9590 C.3   137  TRP137      0.1771
     68  C         24.8800   -3.3030    2.0460 C.2   137  TRP137      0.2619
     69  O         24.8290   -2.0940    1.8050 O.2   137  TRP137     -0.2715
     70  CB        22.8090   -4.0850    3.2610 C.3   137  TRP137      0.0590
     71  CG        23.5350   -4.4540    4.5060 C.ar  137  TRP137      0.0006
     72  CD1       23.5160   -5.6700    5.1640 C.ar  137  TRP137      0.0946
     73  CD2       24.3940   -3.6000    5.2680 C.ar  137  TRP137      0.0152
     74  NE1       24.3250   -5.6110    6.2780 N.ar  137  TRP137     -0.2442
     75  CE2       24.8790   -4.3560    6.3570 C.ar  137  TRP137      0.0810
     76  CE3       24.7870   -2.2530    5.1590 C.ar  137  TRP137      0.0012
     77  CZ2       25.7720   -3.8190    7.2910 C.ar  137  TRP137      0.0191
     78  CZ3       25.6730   -1.7330    6.0980 C.ar  137  TRP137      0.0001
     79  CH2       26.1440   -2.5100    7.1390 C.ar  137  TRP137      0.0015
     80  N         26.0010   -3.9170    2.3980 N.am  138  GLU138     -0.1977
     81  CA        27.2010   -3.1180    2.6400 C.3   138  GLU138      0.1602
     82  C         27.6800   -2.4180    1.3700 C.2   138  GLU138      0.2287
     83  O         28.3260   -1.3760    1.4190 O.2   138  GLU138     -0.2864
     84  CB        28.3230   -3.9730    3.2110 C.3   138  GLU138      0.0415
     85  CG        27.9520   -4.7490    4.4830 C.3   138  GLU138      0.1163
     86  CD        27.3280   -6.1170    4.2500 C.2   138  GLU138      0.3649
     87  OE1       26.8590   -6.4370    3.1500 O.co2 138  GLU138     -0.2457
     88  OE2       27.3360   -6.9270    5.2020 O.co2 138  GLU138     -0.2457
     89  N         27.2430    5.5630   14.8090 N.3   191  ASN191     -0.1225
     90  CA        27.5510    4.2200   14.3580 C.3   191  ASN191      0.1785
     91  C         28.3600    4.2510   13.0730 C.2   191  ASN191      0.2597
     92  O         27.9450    4.8650   12.1020 O.2   191  ASN191     -0.2718
     93  CB        26.2660    3.4300   14.0560 C.3   191  ASN191      0.1169
     94  CG        26.5520    1.9830   13.7020 C.2   191  ASN191      0.2627
     95  OD1       27.0550    1.2450   14.5340 O.2   191  ASN191     -0.2716
     96  ND2       26.2350    1.5630   12.4790 N.am  191  ASN191     -0.0877
     97  N         29.4710    3.5060   13.0630 N.am  192  GLU192     -0.1979
     98  CA        30.2650    3.2070   11.8580 C.3   192  GLU192      0.1602
     99  C         30.4140    4.4030   10.9180 C.2   192  GLU192      0.2287
    100  O         29.9840    4.3870    9.7560 O.2   192  GLU192     -0.2864
    101  CB        29.7350    1.9700   11.1750 C.3   192  GLU192      0.0415
    102  CG        29.9010    0.7830   12.1240 C.3   192  GLU192      0.1163
    103  CD        29.6570   -0.5740   11.5410 C.2   192  GLU192      0.3649
    104  OE1       28.9300   -0.7030   10.5350 O.co2 192  GLU192     -0.2457
    105  OE2       30.2180   -1.5360   12.1230 O.co2 192  GLU192     -0.2457
    106  N         34.2750   -1.4510   16.5800 N.3   263  HIS263     -0.1241
    107  CA        33.5830   -2.6720   16.2350 C.3   263  HIS263      0.1621
    108  C         34.5830   -3.6940   15.6910 C.2   263  HIS263      0.2264
    109  O         35.7140   -3.3470   15.3360 O.2   263  HIS263     -0.2867
    110  CB        32.5240   -2.4030   15.1780 C.3   263  HIS263      0.0745
    111  CG        31.4360   -1.4990   15.6390 C.ar  263  HIS263      0.0817
    112  ND1       30.3950   -1.1330   14.8160 N.ar  263  HIS263     -0.2268
    113  CD2       31.2080   -0.8950   16.8260 C.ar  263  HIS263      0.1154
    114  CE1       29.5600   -0.3590   15.4990 C.ar  263  HIS263      0.1986
    115  NE2       30.0370   -0.1870   16.7170 N.ar  263  HIS263     -0.2212
    116  N         34.6970   -6.9200   12.9250 N.3   265  TYR265     -0.1241
    117  CA        34.0620   -7.7330   11.8680 C.3   265  TYR265      0.1605
    118  C         35.1680   -8.2710   10.9510 C.2   265  TYR265      0.2264
    119  O         35.4500   -7.7030    9.9070 O.2   265  TYR265     -0.2867
    120  CB        33.0110   -6.8970   11.1190 C.3   265  TYR265      0.0534
    121  CG        31.7650   -6.7490   11.9440 C.ar  265  TYR265     -0.0201
    122  CD1       30.8020   -7.7490   11.9450 C.ar  265  TYR265     -0.0009
    123  CD2       31.5750   -5.6450   12.7690 C.ar  265  TYR265     -0.0009
    124  CE1       29.6850   -7.6610   12.7540 C.ar  265  TYR265      0.0417
    125  CE2       30.4450   -5.5300   13.5860 C.ar  265  TYR265      0.0417
    126  CZ        29.5060   -6.5560   13.5590 C.ar  265  TYR265      0.1957
    127  OH        28.3760   -6.5380   14.3490 O.3   265  TYR265     -0.2866
    128  N         30.0270   -3.5150   18.7960 N.3   310  SER310     -0.1217
    129  CA        29.3240   -4.3910   17.8870 C.3   310  SER310      0.1889
    130  C         30.2970   -5.4440   17.3530 C.2   310  SER310      0.2288
    131  O         31.3940   -5.1250   16.9020 O.2   310  SER310     -0.2866
    132  CB        28.7880   -3.5470   16.7300 C.3   310  SER310      0.2089
    133  OG        27.9590   -4.3080   15.8790 O.3   310  SER310     -0.2183
    134  N         26.4040  -15.2670   12.2450 N.3   314  ASP314     -0.1239
    135  CA        25.4360  -16.3540   12.2160 C.3   314  ASP314      0.1674
    136  C         25.9710  -17.5000   13.0570 C.2   314  ASP314      0.2266
    137  O         26.9830  -18.1080   12.7330 O.2   314  ASP314     -0.2867
    138  CB        25.2440  -16.7460   10.7430 C.3   314  ASP314      0.1410
    139  CG        24.2840  -17.8870   10.5290 C.2   314  ASP314      0.3668
    140  OD1       24.0350  -18.6700   11.4580 O.co2 314  ASP314     -0.2456
    141  OD2       23.7840  -18.0040    9.3890 O.co2 314  ASP314     -0.2456
    142  N         26.0380   -7.9500   18.4680 N.3   341  TRP341     -0.1241
    143  CA        25.1070   -7.6350   17.3920 C.3   341  TRP341      0.1605
    144  C         24.3700   -8.9050   16.9740 C.2   341  TRP341      0.2264
    145  O         24.9640   -9.7430   16.2920 O.2   341  TRP341     -0.2867
    146  CB        25.8430   -7.0390   16.1560 C.3   341  TRP341      0.0550
    147  CG        24.8120   -6.6030   15.1330 C.ar  341  TRP341      0.0003
    148  CD1       24.2440   -7.3680   14.1720 C.ar  341  TRP341      0.0946
    149  CD2       24.1180   -5.3720   15.1170 C.ar  341  TRP341      0.0152
    150  NE1       23.2510   -6.6800   13.5330 N.ar  341  TRP341     -0.2442
    151  CE2       23.1450   -5.4430   14.1040 C.ar  341  TRP341      0.0810
    152  CE3       24.2290   -4.2010   15.8810 C.ar  341  TRP341      0.0012
    153  CZ2       22.2840   -4.3880   13.8130 C.ar  341  TRP341      0.0191
    154  CZ3       23.3650   -3.1350   15.6010 C.ar  341  TRP341      0.0001
    155  CH2       22.3930   -3.2460   14.5790 C.ar  341  TRP341      0.0015
    156  N         15.6660  -11.1940   16.3190 N.3   345  PRO345     -0.2102
    157  CA        15.3950  -12.6090   16.0250 C.3   345  PRO345      0.1504
    158  C         16.1460  -13.1260   14.8100 C.2   345  PRO345      0.2576
    159  O         16.1930  -12.4570   13.7720 O.2   345  PRO345     -0.2718
    160  CB        13.8750  -12.6490   15.7700 C.3   345  PRO345      0.0282
    161  CG        13.3590  -11.3470   16.1340 C.3   345  PRO345      0.0208
    162  CD        14.4420  -10.3730   16.3020 C.3   345  PRO345      0.0893
    163  N         16.6630  -14.3460   14.9310 N.am  346  GLY346     -0.1943
    164  CA        17.3580  -14.9960   13.8530 C.3   346  GLY346      0.1998
    165  C         18.6270  -15.6670   14.3470 C.2   346  GLY346      0.2481
    166  O         18.9760  -15.5850   15.5320 O.2   346  GLY346     -0.2729
    167  N         19.3340  -16.3660   13.4540 N.am  347  PRO347     -0.2715
    168  CA        20.5010  -17.1550   13.8460 C.3   347  PRO347      0.1536
    169  C         21.7160  -16.3560   14.3410 C.2   347  PRO347      0.2598
    170  O         22.5880  -16.9550   14.9650 O.2   347  PRO347     -0.2715
    171  CB        20.8140  -17.9550   12.5820 C.3   347  PRO347      0.0310
    172  CG        20.3000  -17.1100   11.4720 C.3   347  PRO347      0.0237
    173  CD        19.0330  -16.5230   12.0140 C.3   347  PRO347      0.0939
    174  N         21.7960  -15.0590   14.0540 N.am  348  TRP348     -0.1974
    175  CA        22.8240  -14.2310   14.7010 C.3   348  TRP348      0.1640
    176  C         22.5560  -13.9910   16.1670 C.2   348  TRP348      0.2290
    177  O         23.4830  -13.7710   16.9200 O.2   348  TRP348     -0.2864
    178  CB        22.9280  -12.8680   14.0360 C.3   348  TRP348      0.0576
    179  CG        23.6330  -12.7960   12.7090 C.ar  348  TRP348      0.0006
    180  CD1       23.3330  -13.4540   11.5400 C.ar  348  TRP348      0.0946
    181  CD2       24.7270  -11.9260   12.4100 C.ar  348  TRP348      0.0152
    182  NE1       24.1980  -13.0570   10.5540 N.ar  348  TRP348     -0.2442
    183  CE2       25.0450  -12.1080   11.0540 C.ar  348  TRP348      0.0810
    184  CE3       25.4590  -10.9880   13.1590 C.ar  348  TRP348      0.0012
    185  CZ2       26.0940  -11.4030   10.4330 C.ar  348  TRP348      0.0191
    186  CZ3       26.4610  -10.2680   12.5360 C.ar  348  TRP348      0.0001
    187  CH2       26.7760  -10.4860   11.2070 C.ar  348  TRP348      0.0015
@<TRIPOS>BOND
     1    55    56    1
     2    58    57    2
     3    56    57    1
     4    56    59    1
     5    60    59    1
     6    60    61    1
     7    57    66   am
     8    61    62    1
     9    82    83    2
    10    82    81    1
    11    66    67    1
    12    69    68    2
    13    67    68    1
    14    67    70    1
    15    68    80   am
    16    62    63    2
    17    64    63    1
    18    80    81    1
    19    81    84    1
    20    63    65    1
    21    87    86   ar
    22    45    43    1
    23    84    85    1
    24    70    71    1
    25    44    43    1
    26    44    46    1
    27    43    40    1
    28    86    85    1
    29    86    88   ar
    30    71    72   ar
    31    71    73   ar
    32    40    41    1
    33    40    39    1
    34    76    73   ar
    35    76    78   ar
    36    72    74   ar
    37    73    75   ar
    38    41    42    2
    39    39    36   am
    40    78    79   ar
    41    74    75   ar
    42    75    77   ar
    43    29    28    2
    44    38    35    1
    45    34    35    1
    46    36    35    1
    47    36    37    2
    48    28    27    1
    49    47    48    1
    50    79    77   ar
    51    48    49    1
    52    48    51    1
    53    27    30    1
    54    27    26    1
    55    30    31    1
    56    50    49    2
    57    54    52   am
    58    51    52    1
    59   141   139   ar
    60    31    32   ar
    61    31    33   ar
    62    52    53    2
    63   100    99    2
    64   119   118    2
    65   185   183   ar
    66   185   187   ar
    67   139   138    1
    68   139   140   ar
    69   104   103   ar
    70   182   183   ar
    71   182   180   ar
    72    10     9    2
    73   138   135    1
    74    99    98    1
    75   118   117    1
    76    15    14    1
    77   183   181   ar
    78   120   117    1
    79   120   121    1
    80   101    98    1
    81   101   102    1
    82   187   186   ar
    83    13    14    1
    84    13    12    1
    85     9     8    1
    86    11    12    1
    87    11     8    1
    88   172   173    1
    89   172   171    1
    90   180   179   ar
    91   103   105   ar
    92   103   102    1
    93    98    97    1
    94   117   116    1
    95   121   122   ar
    96   121   123   ar
    97   122   124   ar
    98   173   167    1
    99    92    91    2
   100     8     7    1
   101   135   134    1
   102   135   136    1
   103     6     5    1
   104   181   179   ar
   105   181   184   ar
   106    96    94   am
   107   186   184   ar
   108   171   168    1
   109   179   178    1
   110   137   136    2
   111   124   126   ar
   112   123   125   ar
   113    19    18    2
   114    25    23   ar
   115    25    24   ar
   116     4     3    2
   117    97    91   am
   118    91    90    1
   119    23    21   ar
   120    18    17    1
   121   167   168    1
   122   167   165   am
   123   150   151   ar
   124   150   148   ar
   125   126   125   ar
   126   126   127    1
   127     5     2    1
   128    94    93    1
   129    94    95    2
   130   159   158    2
   131   153   151   ar
   132   153   155   ar
   133   168   169    1
   134   164   165    1
   135   164   163    1
   136     3     2    1
   137   178   175    1
   138   174   169   am
   139   174   175    1
   140    93    90    1
   141   151   149   ar
   142    24    22   ar
   143   148   147   ar
   144    21    22   ar
   145    21    20    1
   146   169   170    2
   147   165   166    2
   148    90    89    1
   149     2     1    1
   150   155   154   ar
   151    17    20    1
   152    17    16    1
   153   175   176    1
   154   158   163   am
   155   158   157    1
   156   112   114   ar
   157   112   111   ar
   158   149   147   ar
   159   149   152   ar
   160   147   146    1
   161   110   111    1
   162   110   107    1
   163   109   108    2
   164   114   115   ar
   165   154   152   ar
   166   111   113   ar
   167   108   107    1
   168   160   157    1
   169   160   161    1
   170   133   132    1
   171   157   156    1
   172   161   162    1
   173   146   143    1
   174   176   177    2
   175   107   106    1
   176   145   144    2
   177   162   156    1
   178   115   113   ar
   179   132   129    1
   180   131   130    2
   181   144   143    1
   182   130   129    1
   183   143   142    1
   184   129   128    1
