@<TRIPOS>MOLECULE
tmp/2osyA00.pdb
 157 152 0 0 0
SMALL
GASTEIGER

@<TRIPOS>ATOM
      1  N         27.6090   59.7740  -18.9530 N.3    21  SER21      -0.1217
      2  CA        28.4920   59.0570  -19.8760 C.3    21  SER21       0.1889
      3  C         29.8210   58.6690  -19.2080 C.2    21  SER21       0.2288
      4  O         30.4780   57.7400  -19.6400 O.2    21  SER21      -0.2866
      5  CB        28.7560   59.8860  -21.1370 C.3    21  SER21       0.2089
      6  OG        29.2130   59.0600  -22.1870 O.3    21  SER21      -0.2183
      7  N         30.2060   54.8990  -18.1830 N.3    24  LYS24      -0.1245
      8  CA        30.5690   53.8820  -19.1560 C.3    24  LYS24       0.1561
      9  C         31.9370   53.2270  -18.8820 C.2    24  LYS24       0.2260
     10  O         32.0750   52.0300  -19.0150 O.2    24  LYS24      -0.2867
     11  CB        30.5780   54.4700  -20.5620 C.3    24  LYS24       0.0271
     12  CG        29.2570   55.0070  -21.0390 C.3    24  LYS24       0.0035
     13  CD        29.4250   55.8440  -22.2850 C.3    24  LYS24       0.0206
     14  CE        28.1010   56.1680  -22.8970 C.3    24  LYS24       0.1093
     15  NZ        28.3110   56.9120  -24.1800 N.3    24  LYS24      -0.1314
     16  N         22.7330   50.6730  -20.2710 N.3    93  HIS93      -0.1241
     17  CA        23.4080   51.3810  -21.3440 C.3    93  HIS93       0.1621
     18  C         24.4750   50.5670  -22.0050 C.2    93  HIS93       0.2264
     19  O         25.2550   49.9070  -21.3410 O.2    93  HIS93      -0.2867
     20  CB        24.0490   52.6570  -20.8220 C.3    93  HIS93       0.0745
     21  CG        24.2440   53.6880  -21.8790 C.ar   93  HIS93       0.0817
     22  ND1       23.2660   54.5980  -22.2000 N.ar   93  HIS93      -0.2268
     23  CD2       25.2640   53.9060  -22.7420 C.ar   93  HIS93       0.1154
     24  CE1       23.6930   55.3650  -23.1820 C.ar   93  HIS93       0.1986
     25  NE2       24.8970   54.9650  -23.5360 N.ar   93  HIS93      -0.2212
     26  N         26.9630   51.2410  -25.7720 N.3    95  ASP95      -0.1239
     27  CA        27.2700   51.7030  -27.1150 C.3    95  ASP95       0.1674
     28  C         28.2700   50.7500  -27.7270 C.2    95  ASP95       0.2266
     29  O         29.2240   50.3310  -27.0740 O.2    95  ASP95      -0.2867
     30  CB        27.8750   53.1060  -27.1000 C.3    95  ASP95       0.1410
     31  CG        26.9800   54.1240  -26.4270 C.2    95  ASP95       0.3668
     32  OD1       26.1140   54.7250  -27.1070 O.co2  95  ASP95      -0.2456
     33  OD2       27.1900   54.3490  -25.2230 O.co2  95  ASP95      -0.2456
     34  N         35.1630   53.9290  -22.6830 N.3   107  ALA107     -0.1231
     35  CA        34.7550   55.2990  -23.0120 C.3   107  ALA107      0.1694
     36  C         33.9620   55.3700  -24.3150 C.2   107  ALA107      0.2591
     37  O         33.1520   56.2770  -24.4910 O.2   107  ALA107     -0.2718
     38  CB        35.9910   56.1960  -23.1120 C.3   107  ALA107      0.0304
     39  N         34.2340   54.4320  -25.2290 N.am  108  ILE108     -0.1980
     40  CA        33.5700   54.3750  -26.5440 C.3   108  ILE108      0.1595
     41  C         32.5920   53.2070  -26.5290 C.2   108  ILE108      0.2287
     42  O         31.4240   53.3970  -26.1150 O.2   108  ILE108     -0.2864
     43  CB        34.5790   54.2610  -27.7380 C.3   108  ILE108      0.0276
     44  CG1       35.6160   55.3860  -27.6670 C.3   108  ILE108      0.0022
     45  CG2       33.8190   54.3170  -29.0640 C.3   108  ILE108      0.0022
     46  CD1       36.2230   55.7870  -29.0390 C.3   108  ILE108      0.0001
     47  N         30.9980   50.0780  -24.8400 N.3   110  ASN110     -0.1240
     48  CA        30.6310   49.9190  -23.4280 C.3   110  ASN110      0.1653
     49  C         29.3320   49.1360  -23.2620 C.2   110  ASN110      0.2266
     50  O         28.4320   49.2520  -24.0940 O.2   110  ASN110     -0.2867
     51  CB        30.4740   51.2890  -22.7200 C.3   110  ASN110      0.1155
     52  CG        29.2390   52.0700  -23.1780 C.2   110  ASN110      0.2627
     53  OD1       28.1940   52.0340  -22.5260 O.2   110  ASN110     -0.2716
     54  ND2       29.3550   52.7700  -24.3040 N.am  110  ASN110     -0.0877
     55  N         33.5140   57.2390  -34.1570 N.3   130  TRP130     -0.1227
     56  CA        33.2010   56.0720  -33.3100 C.3   130  TRP130      0.1737
     57  C         31.9780   55.2170  -33.7390 C.2   130  TRP130      0.2595
     58  O         31.9580   53.9840  -33.5600 O.2   130  TRP130     -0.2718
     59  CB        33.0400   56.5130  -31.8430 C.3   130  TRP130      0.0564
     60  CG        31.7390   57.2950  -31.4810 C.ar  130  TRP130      0.0003
     61  CD1       31.5960   58.6340  -31.4120 C.ar  130  TRP130      0.0946
     62  CD2       30.4550   56.7360  -31.1150 C.ar  130  TRP130      0.0152
     63  NE1       30.3010   58.9620  -31.0330 N.ar  130  TRP130     -0.2442
     64  CE2       29.5890   57.8090  -30.8460 C.ar  130  TRP130      0.0810
     65  CE3       29.9590   55.4260  -30.9950 C.ar  130  TRP130      0.0012
     66  CZ2       28.2570   57.6220  -30.4660 C.ar  130  TRP130      0.0191
     67  CZ3       28.6230   55.2420  -30.6180 C.ar  130  TRP130      0.0001
     68  CH2       27.7950   56.3320  -30.3610 C.ar  130  TRP130      0.0015
     69  N         30.9710   55.8730  -34.3120 N.am  131  GLU131     -0.1979
     70  CA        29.7610   55.1870  -34.7420 C.3   131  GLU131      0.1602
     71  C         30.0550   54.1540  -35.7960 C.2   131  GLU131      0.2287
     72  O         29.3030   53.2160  -35.9130 O.2   131  GLU131     -0.2864
     73  CB        28.7380   56.1580  -35.3220 C.3   131  GLU131      0.0415
     74  CG        28.1570   57.1120  -34.3160 C.3   131  GLU131      0.1163
     75  CD        28.8510   58.4590  -34.3120 C.2   131  GLU131      0.3649
     76  OE1       30.0370   58.5640  -34.7210 O.co2 131  GLU131     -0.2457
     77  OE2       28.1820   59.4060  -33.8810 O.co2 131  GLU131     -0.2457
     78  N         19.6400   50.6630  -24.1700 N.3   184  ASN184     -0.1225
     79  CA        20.0430   51.8740  -24.8620 C.3   184  ASN184      0.1785
     80  C         20.4390   51.5600  -26.2940 C.2   184  ASN184      0.2597
     81  O         21.2720   50.6730  -26.5450 O.2   184  ASN184     -0.2718
     82  CB        21.2350   52.5510  -24.2140 C.3   184  ASN184      0.1169
     83  CG        21.6220   53.8110  -24.9290 C.2   184  ASN184      0.2627
     84  OD1       20.9060   54.8080  -24.8650 O.2   184  ASN184     -0.2716
     85  ND2       22.7720   53.7900  -25.6080 N.am  184  ASN184     -0.0877
     86  N         19.8610   52.3330  -27.2160 N.am  185  ALA185     -0.1979
     87  CA        20.2580   52.3260  -28.6370 C.3   185  ALA185      0.1597
     88  C         20.3970   50.9240  -29.2400 C.2   185  ALA185      0.2287
     89  O         21.4430   50.5700  -29.7370 O.2   185  ALA185     -0.2864
     90  CB        21.5380   53.1410  -28.8290 C.3   185  ALA185      0.0319
     91  N         16.1190   57.3260  -35.0260 N.3   231  ASN231     -0.1240
     92  CA        16.7050   58.5420  -34.4270 C.3   231  ASN231      0.1653
     93  C         16.6010   59.7590  -35.3540 C.2   231  ASN231      0.2266
     94  O         16.5130   60.8980  -34.8870 O.2   231  ASN231     -0.2867
     95  CB        18.2040   58.3320  -34.1010 C.3   231  ASN231      0.1155
     96  CG        18.4600   57.7350  -32.7050 C.2   231  ASN231      0.2627
     97  OD1       17.5830   57.1180  -32.0930 O.2   231  ASN231     -0.2716
     98  ND2       19.7040   57.9100  -32.2170 N.am  231  ASN231     -0.0877
     99  N         14.9520   58.0170  -28.9960 N.3   256  HIS256     -0.1241
    100  CA        15.9600   59.0770  -29.0880 C.3   256  HIS256      0.1621
    101  C         15.6640   59.9940  -30.3070 C.2   256  HIS256      0.2264
    102  O         14.9130   59.6280  -31.1930 O.2   256  HIS256     -0.2867
    103  CB        17.3370   58.4560  -29.2420 C.3   256  HIS256      0.0745
    104  CG        17.8090   57.7070  -28.0280 C.ar  256  HIS256      0.0817
    105  ND1       17.0070   57.4630  -26.9270 N.ar  256  HIS256     -0.2268
    106  CD2       19.0010   57.1360  -27.7510 C.ar  256  HIS256      0.1154
    107  CE1       17.6840   56.7730  -26.0340 C.ar  256  HIS256      0.1986
    108  NE2       18.8990   56.5620  -26.5100 N.ar  256  HIS256     -0.2212
    109  N         18.0430   62.3440  -32.9520 N.3   258  TYR258     -0.1241
    110  CA        19.3260   62.8810  -33.4460 C.3   258  TYR258      0.1605
    111  C         19.3110   63.2330  -34.9510 C.2   258  TYR258      0.2264
    112  O         19.7650   62.4540  -35.8000 O.2   258  TYR258     -0.2867
    113  CB        20.4950   61.9340  -33.0990 C.3   258  TYR258      0.0534
    114  CG        21.0810   62.2900  -31.7400 C.ar  258  TYR258     -0.0201
    115  CD1       22.1640   63.1720  -31.6220 C.ar  258  TYR258     -0.0009
    116  CD2       20.5010   61.8120  -30.5660 C.ar  258  TYR258     -0.0009
    117  CE1       22.6660   63.5290  -30.3780 C.ar  258  TYR258      0.0417
    118  CE2       21.0010   62.1760  -29.3110 C.ar  258  TYR258      0.0417
    119  CZ        22.0760   63.0240  -29.2240 C.ar  258  TYR258      0.1957
    120  OH        22.5700   63.3430  -27.9670 O.3   258  TYR258     -0.2866
    121  N         16.9460   60.4740  -25.0970 N.3   293  GLU293     -0.1245
    122  CA        18.2030   61.0780  -25.5190 C.3   293  GLU293      0.1567
    123  C         18.0300   62.1050  -26.6080 C.2   293  GLU293      0.2260
    124  O         17.5160   61.8310  -27.7000 O.2   293  GLU293     -0.2867
    125  CB        19.1600   60.0180  -26.0170 C.3   293  GLU293      0.0388
    126  CG        20.5810   60.4920  -26.1700 C.3   293  GLU293      0.1160
    127  CD        21.3340   59.7150  -27.2120 C.2   293  GLU293      0.3649
    128  OE1       20.8180   59.5330  -28.3460 O.co2 293  GLU293     -0.2457
    129  OE2       22.4680   59.3140  -26.9180 O.co2 293  GLU293     -0.2457
    130  N         20.7890   64.6760  -23.2300 N.3   324  TRP324     -0.1241
    131  CA        22.1400   64.1080  -23.3300 C.3   324  TRP324      0.1605
    132  C         23.1970   65.2330  -23.4220 C.2   324  TRP324      0.2264
    133  O         23.3190   65.8400  -24.4580 O.2   324  TRP324     -0.2867
    134  CB        22.2690   63.1560  -24.5520 C.3   324  TRP324      0.0550
    135  CG        23.5760   62.4320  -24.5030 C.ar  324  TRP324      0.0003
    136  CD1       24.7640   62.8620  -25.0180 C.ar  324  TRP324      0.0946
    137  CD2       23.8620   61.2230  -23.8030 C.ar  324  TRP324      0.0152
    138  NE1       25.7580   61.9910  -24.6970 N.ar  324  TRP324     -0.2442
    139  CE2       25.2410   60.9700  -23.9540 C.ar  324  TRP324      0.0810
    140  CE3       23.0920   60.3230  -23.0630 C.ar  324  TRP324      0.0012
    141  CZ2       25.8630   59.8420  -23.4040 C.ar  324  TRP324      0.0191
    142  CZ3       23.7100   59.2130  -22.5150 C.ar  324  TRP324      0.0001
    143  CH2       25.0820   58.9760  -22.6960 C.ar  324  TRP324      0.0015
    144  N         28.1240   70.4680  -24.7090 N.3   331  TRP331     -0.1241
    145  CA        26.7890   69.8820  -24.8260 C.3   331  TRP331      0.1605
    146  C         25.9990   69.9770  -23.5320 C.2   331  TRP331      0.2264
    147  O         24.7700   70.0920  -23.5560 O.2   331  TRP331     -0.2867
    148  CB        26.8660   68.4160  -25.1760 C.3   331  TRP331      0.0550
    149  CG        27.2880   68.0670  -26.5500 C.ar  331  TRP331      0.0003
    150  CD1       28.3480   68.5810  -27.2810 C.ar  331  TRP331      0.0946
    151  CD2       26.7070   67.0450  -27.3480 C.ar  331  TRP331      0.0152
    152  NE1       28.4180   67.9550  -28.5030 N.ar  331  TRP331     -0.2442
    153  CE2       27.4310   66.9960  -28.5640 C.ar  331  TRP331      0.0810
    154  CE3       25.6260   66.1650  -27.1590 C.ar  331  TRP331      0.0012
    155  CZ2       27.0980   66.1080  -29.5910 C.ar  331  TRP331      0.0191
    156  CZ3       25.3120   65.2690  -28.1730 C.ar  331  TRP331      0.0001
    157  CH2       26.0490   65.2460  -29.3730 C.ar  331  TRP331      0.0015
@<TRIPOS>BOND
     1    72    71    2
     2   112   111    2
     3    71    70    1
     4    93    94    2
     5    93    92    1
     6    73    70    1
     7    73    74    1
     8    91    92    1
     9   111   110    1
    10    70    69    1
    11    76    75   ar
    12    92    95    1
    13    74    75    1
    14    69    57   am
    15    75    77   ar
    16    55    56    1
    17    95    96    1
    18    57    58    2
    19    57    56    1
    20   110   113    1
    21   110   109    1
    22    56    59    1
    23   113   114    1
    24    96    98   am
    25    96    97    2
    26    59    60    1
    27   114   115   ar
    28   114   116   ar
    29   115   117   ar
    30    60    61   ar
    31    60    62   ar
    32    61    63   ar
    33   102   101    2
    34    62    65   ar
    35    62    64   ar
    36    63    64   ar
    37    65    67   ar
    38    64    66   ar
    39    67    68   ar
    40   116   118   ar
    41    66    68   ar
    42   117   119   ar
    43   101   100    1
    44    89    88    2
    45   155   157   ar
    46   155   153   ar
    47   157   156   ar
    48   118   119   ar
    49   103   100    1
    50   103   104    1
    51    88    87    1
    52   119   120    1
    53   100    99    1
    54    45    43    1
    55    46    44    1
    56    90    87    1
    57    87    86    1
    58   153   152   ar
    59   153   151   ar
    60   152   150   ar
    61   128   127   ar
    62   156   154   ar
    63   104   106   ar
    64   104   105   ar
    65   106   108   ar
    66    43    44    1
    67    43    40    1
    68    28    27    1
    69    28    29    2
    70   124   123    2
    71   151   154   ar
    72   151   149   ar
    73   150   149   ar
    74    86    80   am
    75   127   129   ar
    76   127   126    1
    77    27    30    1
    78    27    26    1
    79    32    31   ar
    80    30    31    1
    81   105   107   ar
    82   123   122    1
    83   149   148    1
    84    81    80    2
    85    40    41    1
    86    40    39    1
    87    41    42    2
    88   108   107   ar
    89    31    33   ar
    90    80    79    1
    91   126   125    1
    92   125   122    1
    93    85    83   am
    94   122   121    1
    95    39    36   am
    96   148   145    1
    97   136   138   ar
    98   136   135   ar
    99    83    84    2
   100    83    82    1
   101    79    82    1
   102    79    78    1
   103    47    48    1
   104   145   144    1
   105   145   146    1
   106   138   139   ar
   107   134   135    1
   108   134   131    1
   109   135   137   ar
   110    37    36    2
   111   133   132    2
   112    36    35    1
   113    54    52   am
   114    15    14    1
   115    50    49    2
   116   139   137   ar
   117   139   141   ar
   118   137   140   ar
   119   147   146    2
   120    25    24   ar
   121    25    23   ar
   122    48    49    1
   123    48    51    1
   124   132   131    1
   125   141   143   ar
   126   131   130    1
   127    24    22   ar
   128    52    51    1
   129    52    53    2
   130    38    35    1
   131   140   142   ar
   132    35    34    1
   133    14    13    1
   134    23    21   ar
   135   143   142   ar
   136    13    12    1
   137    22    21   ar
   138     6     5    1
   139    18    17    1
   140    18    19    2
   141    21    20    1
   142    17    20    1
   143    17    16    1
   144     5     2    1
   145    12    11    1
   146    11     8    1
   147     2     3    1
   148     2     1    1
   149     4     3    2
   150     8     9    1
   151     8     7    1
   152    10     9    2
