@<TRIPOS>MOLECULE
tmp/2ot0C00.pdb
 166 153 0 0 0
SMALL
GASTEIGER

@<TRIPOS>ATOM
      1  N         -6.5370  -33.6510   15.8260 N.3    33  ASP33      -0.1225
      2  CA        -5.9720  -32.9460   16.9670 C.3    33  ASP33       0.1805
      3  C         -5.6610  -33.8440   18.1550 C.2    33  ASP33       0.2597
      4  O         -5.7840  -33.4120   19.3000 O.2    33  ASP33      -0.2718
      5  CB        -6.9380  -31.8530   17.4170 C.3    33  ASP33       0.1424
      6  CG        -8.2550  -32.4200   17.9260 C.2    33  ASP33       0.3668
      7  OD1       -8.9100  -33.1660   17.1670 O.co2  33  ASP33      -0.2456
      8  OD2       -8.6340  -32.1240   19.0810 O.co2  33  ASP33      -0.2456
      9  N         -5.2690  -35.0880   17.8990 N.am   34  GLU34      -0.1979
     10  CA        -4.9410  -35.9880   18.9980 C.3    34  GLU34       0.1602
     11  C         -3.7610  -35.4210   19.7850 C.2    34  GLU34       0.2287
     12  O         -2.7810  -34.9560   19.1980 O.2    34  GLU34      -0.2864
     13  CB        -4.5630  -37.3810   18.4850 C.3    34  GLU34       0.0415
     14  CG        -5.6480  -38.1110   17.7200 C.3    34  GLU34       0.1163
     15  CD        -5.7490  -37.6690   16.2760 C.2    34  GLU34       0.3649
     16  OE1       -4.8740  -36.9030   15.8200 O.co2  34  GLU34      -0.2457
     17  OE2       -6.7010  -38.0960   15.5920 O.co2  34  GLU34      -0.2457
     18  N         -2.2190  -39.2860   23.1320 N.3    38  SER38      -0.1217
     19  CA        -3.1020  -40.0880   22.2960 C.3    38  SER38       0.1889
     20  C         -2.4220  -40.5070   20.9950 C.2    38  SER38       0.2288
     21  O         -2.5020  -41.6660   20.5890 O.2    38  SER38      -0.2866
     22  CB        -4.3700  -39.3010   21.9710 C.3    38  SER38       0.2089
     23  OG        -5.1140  -39.9570   20.9620 O.3    38  SER38      -0.2183
     24  N         -0.2490  -43.3890   21.4310 N.3    41  LYS41      -0.1231
     25  CA        -0.9200  -44.6810   21.4820 C.3    41  LYS41       0.1693
     26  C         -1.2000  -45.1530   20.0620 C.2    41  LYS41       0.2591
     27  O         -1.1530  -46.3490   19.7790 O.2    41  LYS41      -0.2718
     28  CB        -2.2300  -44.5650   22.2590 C.3    41  LYS41       0.0285
     29  CG        -2.0660  -44.0070   23.6640 C.3    41  LYS41       0.0035
     30  CD        -3.4150  -43.8050   24.3370 C.3    41  LYS41       0.0206
     31  CE        -3.2620  -43.1290   25.6900 C.3    41  LYS41       0.1093
     32  NZ        -4.5820  -42.8760   26.3350 N.3    41  LYS41      -0.1314
     33  N         -1.4920  -44.2050   19.1740 N.am   42  ARG42      -0.1980
     34  CA        -1.7690  -44.5170   17.7730 C.3    42  ARG42       0.1597
     35  C         -0.5330  -45.1240   17.1080 C.2    42  ARG42       0.2287
     36  O         -0.5880  -46.2190   16.5500 O.2    42  ARG42      -0.2864
     37  CB        -2.1700  -43.2510   17.0060 C.3    42  ARG42       0.0334
     38  CG        -3.6470  -43.1450   16.6350 C.3    42  ARG42       0.0492
     39  CD        -4.5160  -42.8170   17.8290 C.3    42  ARG42       0.2205
     40  NE        -4.7270  -43.9680   18.6980 N.pl3  42  ARG42      -0.0865
     41  CZ        -5.2890  -43.8900   19.9000 C.cat  42  ARG42       0.5346
     42  NH1       -5.6920  -42.7130   20.3670 N.pl3  42  ARG42       0.1354
     43  NH2       -5.4460  -44.9810   20.6350 N.pl3  42  ARG42       0.1354
     44  N          2.7100  -38.3710    9.4290 N.3    58  TYR58      -0.1241
     45  CA         1.3480  -38.8850    9.4550 C.3    58  TYR58       0.1605
     46  C          0.3450  -37.7670    9.1810 C.2    58  TYR58       0.2264
     47  O         -0.5750  -37.9320    8.3780 O.2    58  TYR58      -0.2867
     48  CB         1.0440  -39.5410   10.8040 C.3    58  TYR58       0.0534
     49  CG        -0.3680  -40.0820   10.9070 C.ar   58  TYR58      -0.0201
     50  CD1       -0.8410  -41.0280    9.9970 C.ar   58  TYR58      -0.0009
     51  CD2       -1.2320  -39.6440   11.9110 C.ar   58  TYR58      -0.0009
     52  CE1       -2.1410  -41.5270   10.0810 C.ar   58  TYR58       0.0417
     53  CE2       -2.5360  -40.1350   12.0070 C.ar   58  TYR58       0.0417
     54  CZ        -2.9860  -41.0760   11.0890 C.ar   58  TYR58       0.1957
     55  OH        -4.2740  -41.5620   11.1750 O.3    58  TYR58      -0.2866
     56  N         -7.3940  -27.1260   18.7700 N.3   107  LYS107     -0.1245
     57  CA        -7.8960  -27.6000   20.0590 C.3   107  LYS107      0.1561
     58  C         -7.2490  -26.7400   21.1450 C.2   107  LYS107      0.2260
     59  O         -6.0220  -26.6920   21.2570 O.2   107  LYS107     -0.2867
     60  CB        -7.5270  -29.0730   20.2720 C.3   107  LYS107      0.0271
     61  CG        -8.1150  -29.6690   21.5460 C.3   107  LYS107      0.0035
     62  CD        -7.0400  -30.2690   22.4460 C.3   107  LYS107      0.0206
     63  CE        -6.4160  -31.5070   21.8180 C.3   107  LYS107      0.1093
     64  NZ        -7.4260  -32.5830   21.5840 N.3   107  LYS107     -0.1314
     65  N        -11.7120  -25.9410   19.2680 N.3   146  LYS146     -0.1245
     66  CA       -12.3860  -27.0860   19.8730 C.3   146  LYS146      0.1561
     67  C        -12.0290  -27.2090   21.3560 C.2   146  LYS146      0.2260
     68  O        -10.8700  -27.0500   21.7460 O.2   146  LYS146     -0.2867
     69  CB       -11.9950  -28.3720   19.1450 C.3   146  LYS146      0.0271
     70  CG       -12.2700  -29.6550   19.9240 C.3   146  LYS146      0.0035
     71  CD       -11.8140  -30.8650   19.1330 C.3   146  LYS146      0.0206
     72  CE       -11.8660  -32.1470   19.9500 C.3   146  LYS146      0.1093
     73  NZ       -11.4640  -33.3170   19.1060 N.3   146  LYS146     -0.1314
     74  N        -13.1910  -29.8520   24.6070 N.3   148  ARG148     -0.1245
     75  CA       -13.9490  -31.0410   24.9800 C.3   148  ARG148      0.1563
     76  C        -14.2530  -31.2610   26.4540 C.2   148  ARG148      0.2260
     77  O        -13.3460  -31.3960   27.2740 O.2   148  ARG148     -0.2867
     78  CB       -13.2360  -32.2890   24.4560 C.3   148  ARG148      0.0307
     79  CG       -13.8180  -33.6200   24.9580 C.3   148  ARG148      0.0489
     80  CD       -13.0370  -34.7970   24.3720 C.3   148  ARG148      0.2205
     81  NE       -13.6840  -36.0920   24.5830 N.pl3 148  ARG148     -0.0865
     82  CZ       -13.1640  -37.0840   25.3010 C.cat 148  ARG148      0.5346
     83  NH1      -11.9850  -36.9340   25.8900 N.pl3 148  ARG148      0.1354
     84  NH2      -13.8160  -38.2320   25.4190 N.pl3 148  ARG148      0.1354
     85  N        -18.2210  -28.8010   22.5640 N.3   187  GLU187     -0.1245
     86  CA       -18.2840  -30.2560   22.6830 C.3   187  GLU187      0.1567
     87  C        -18.5980  -30.7950   24.0750 C.2   187  GLU187      0.2260
     88  O        -17.7040  -30.9720   24.9030 O.2   187  GLU187     -0.2867
     89  CB       -16.9760  -30.9000   22.1970 C.3   187  GLU187      0.0388
     90  CG       -17.0460  -32.4280   22.1690 C.3   187  GLU187      0.1160
     91  CD       -15.7340  -33.0960   21.7910 C.2   187  GLU187      0.3649
     92  OE1      -14.7980  -32.3910   21.3520 O.co2 187  GLU187     -0.2457
     93  OE2      -15.6490  -34.3370   21.9340 O.co2 187  GLU187     -0.2457
     94  N        -19.4540  -33.8150   25.2970 N.3   189  GLU189     -0.1245
     95  CA       -19.5380  -35.2410   25.0200 C.3   189  GLU189      0.1567
     96  C        -19.9850  -36.1440   26.1530 C.2   189  GLU189      0.2260
     97  O        -19.3260  -36.2330   27.1860 O.2   189  GLU189     -0.2867
     98  CB       -18.2030  -35.7670   24.4840 C.3   189  GLU189      0.0388
     99  CG       -18.0220  -37.2720   24.7230 C.3   189  GLU189      0.1160
    100  CD       -16.9110  -37.8910   23.9000 C.2   189  GLU189      0.3649
    101  OE1      -15.8950  -37.2090   23.6450 O.co2 189  GLU189     -0.2457
    102  OE2      -17.0520  -39.0720   23.5230 O.co2 189  GLU189     -0.2457
    103  N        -20.7520  -30.0600   18.9460 N.3   229  LYS229     -0.1245
    104  CA       -20.1590  -31.3650   18.6690 C.3   229  LYS229      0.1561
    105  C        -20.6270  -32.3000   19.7660 C.2   229  LYS229      0.2260
    106  O        -19.9370  -32.5260   20.7660 O.2   229  LYS229     -0.2867
    107  CB       -18.6350  -31.2850   18.6700 C.3   229  LYS229      0.0271
    108  CG       -17.9620  -32.6240   18.4060 C.3   229  LYS229      0.0035
    109  CD       -16.4530  -32.4760   18.2260 C.3   229  LYS229      0.0206
    110  CE       -15.8070  -33.8250   17.9210 C.3   229  LYS229      0.1093
    111  NZ       -14.3220  -33.7080   17.7710 N.3   229  LYS229     -0.1314
    112  N        -22.0780  -48.9270   25.7130 N.3   237  HIS237     -0.1241
    113  CA       -21.2870  -50.0030   25.1230 C.3   237  HIS237      0.1621
    114  C        -21.5710  -51.3740   25.7330 C.2   237  HIS237      0.2264
    115  O        -21.4980  -52.3890   25.0420 O.2   237  HIS237     -0.2867
    116  CB       -19.7880  -49.7070   25.2450 C.3   237  HIS237      0.0745
    117  CG       -19.3000  -48.6450   24.3080 C.ar  237  HIS237      0.0817
    118  ND1      -19.7950  -48.4940   23.0310 N.ar  237  HIS237     -0.2268
    119  CD2      -18.3280  -47.7110   24.4480 C.ar  237  HIS237      0.1154
    120  CE1      -19.1500  -47.5120   22.4220 C.ar  237  HIS237      0.1986
    121  NE2      -18.2550  -47.0220   23.2600 N.ar  237  HIS237     -0.2212
    122  N        -17.2320  -41.3990   18.6830 N.3   272  GLY272     -0.1210
    123  CA       -16.8480  -42.2500   19.7960 C.3   272  GLY272      0.1956
    124  C        -16.1230  -43.5200   19.3820 C.2   272  GLY272      0.2612
    125  O        -15.1780  -43.4830   18.5930 O.2   272  GLY272     -0.2717
    126  N        -16.5690  -44.6530   19.9120 N.am  273  GLY273     -0.1956
    127  CA       -15.9290  -45.9130   19.5800 C.3   273  GLY273      0.1869
    128  C        -16.5240  -46.6220   18.3770 C.2   273  GLY273      0.2309
    129  O        -16.2340  -47.7960   18.1430 O.2   273  GLY273     -0.2863
    130  N        -12.3060  -38.3260   14.0060 N.3   302  GLY302     -0.1210
    131  CA       -10.8700  -38.5020   14.1160 C.3   302  GLY302      0.1956
    132  C        -10.6320  -39.9420   13.7020 C.2   302  GLY302      0.2611
    133  O        -10.2690  -40.2330   12.5620 O.2   302  GLY302     -0.2717
    134  N        -10.8840  -40.8490   14.6360 N.am  303  ARG303     -0.1979
    135  CA       -10.7210  -42.2760   14.4040 C.3   303  ARG303      0.1597
    136  C        -11.5220  -42.7790   13.2000 C.2   303  ARG303      0.2287
    137  O        -10.9900  -43.4830   12.3460 O.2   303  ARG303     -0.2864
    138  CB       -11.1350  -43.0440   15.6660 C.3   303  ARG303      0.0334
    139  CG       -11.4030  -44.5210   15.4340 C.3   303  ARG303      0.0492
    140  CD       -11.8350  -45.2190   16.7120 C.3   303  ARG303      0.2205
    141  NE       -12.4530  -46.5110   16.4320 N.pl3 303  ARG303     -0.0865
    142  CZ       -12.7680  -47.4080   17.3610 C.cat 303  ARG303      0.5346
    143  NH1      -12.5200  -47.1570   18.6420 N.pl3 303  ARG303      0.1354
    144  NH2      -13.3360  -48.5570   17.0110 N.pl3 303  ARG303      0.1354
    145  N         -9.6120  -41.8930   10.1990 N.3   306  GLN306     -0.1231
    146  CA        -8.2060  -42.2950   10.1790 C.3   306  GLN306      0.1698
    147  C         -7.8670  -43.7710   10.4040 C.2   306  GLN306      0.2592
    148  O         -6.8410  -44.2410    9.9250 O.2   306  GLN306     -0.2718
    149  CB        -7.4270  -41.4870   11.2210 C.3   306  GLN306      0.0381
    150  CG        -7.4970  -39.9810   11.0780 C.3   306  GLN306      0.0905
    151  CD        -6.7940  -39.2780   12.2240 C.2   306  GLN306      0.2608
    152  OE1       -5.6070  -39.4980   12.4670 O.2   306  GLN306     -0.2717
    153  NE2       -7.5260  -38.4300   12.9390 N.am  306  GLN306     -0.0878
    154  N         -8.7070  -44.4840   11.1450 N.am  307  ALA307     -0.1980
    155  CA        -8.4630  -45.8890   11.4680 C.3   307  ALA307      0.1597
    156  C         -7.7750  -46.6820   10.3570 C.2   307  ALA307      0.2287
    157  O         -6.6300  -47.1250   10.5160 O.2   307  ALA307     -0.2864
    158  CB        -9.7720  -46.5690   11.8690 C.3   307  ALA307      0.0319
    159  N         -4.4060  -45.2170    9.1040 N.3   310  LEU310     -0.1245
    160  CA        -3.3350  -45.4740   10.0580 C.3   310  LEU310      0.1561
    161  C         -2.7970  -46.8930    9.8890 C.2   310  LEU310      0.2260
    162  O         -1.5860  -47.1090    9.8370 O.2   310  LEU310     -0.2867
    163  CB        -3.8520  -45.2880   11.4890 C.3   310  LEU310      0.0270
    164  CG        -2.8210  -45.4640   12.6050 C.3   310  LEU310      0.0019
    165  CD1       -1.7780  -44.3640   12.5070 C.3   310  LEU310      0.0001
    166  CD2       -3.5080  -45.4280   13.9550 C.3   310  LEU310      0.0001
@<TRIPOS>BOND
     1    47    46    2
     2   159   160    1
     3    46    45    1
     4    44    45    1
     5    45    48    1
     6   162   161    2
     7   161   160    1
     8   148   147    2
     9    50    52   ar
    10    50    49   ar
    11   160   163    1
    12    52    54   ar
    13   146   145    1
    14   146   147    1
    15   146   149    1
    16   156   157    2
    17   156   155    1
    18   147   154   am
    19    48    49    1
    20    49    51   ar
    21   150   149    1
    22   150   151    1
    23    54    55    1
    24    54    53   ar
    25   154   155    1
    26   155   158    1
    27   163   164    1
    28    51    53   ar
    29   151   152    2
    30   151   153   am
    31   137   136    2
    32   165   164    1
    33   133   132    2
    34   164   166    1
    35   136   135    1
    36   132   131    1
    37   132   134   am
    38   130   131    1
    39   135   134    1
    40   135   138    1
    41   139   138    1
    42   139   140    1
    43    17    15   ar
    44    16    15   ar
    45     1     2    1
    46    15    14    1
    47   141   140    1
    48   141   142    2
    49    36    35    2
    50    38    37    1
    51    38    39    1
    52     2     5    1
    53     2     3    1
    54    37    34    1
    55   144   142    1
    56    35    34    1
    57     7     6   ar
    58   142   143    1
    59     5     6    1
    60    14    13    1
    61   111   110    1
    62    34    33    1
    63    39    40    1
    64     9     3   am
    65     9    10    1
    66   110   109    1
    67     6     8   ar
    68   129   128    2
    69     3     4    2
    70   109   108    1
    71   128   127    1
    72   108   107    1
    73    13    10    1
    74   125   124    2
    75   104   107    1
    76   104   103    1
    77   104   105    1
    78   122   123    1
    79    40    41    2
    80    56    57    1
    81    10    11    1
    82    73    72    1
    83    71    70    1
    84    71    72    1
    85    69    66    1
    86    69    70    1
    87    33    26   am
    88    12    11    2
    89    65    66    1
    90   124   123    1
    91   124   126   am
    92   127   126    1
    93   105   106    2
    94    27    26    2
    95    66    67    1
    96    41    42    1
    97    41    43    1
    98    57    60    1
    99    57    58    1
   100    26    25    1
   101    60    61    1
   102    21    20    2
   103    23    22    1
   104    20    19    1
   105    58    59    2
   106    92    91   ar
   107    67    68    2
   108    24    25    1
   109    25    28    1
   110    61    62    1
   111    64    63    1
   112    91    93   ar
   113    91    90    1
   114    63    62    1
   115    22    19    1
   116    90    89    1
   117    89    86    1
   118    28    29    1
   119    19    18    1
   120   120   118   ar
   121   120   121   ar
   122    85    86    1
   123    86    87    1
   124   118   117   ar
   125   121   119   ar
   126   102   100   ar
   127   101   100   ar
   128    29    30    1
   129   100    99    1
   130    87    88    2
   131   117   119   ar
   132   117   116    1
   133    30    31    1
   134    80    81    1
   135    80    79    1
   136    78    79    1
   137    78    75    1
   138    98    99    1
   139    98    95    1
   140    81    82    2
   141    74    75    1
   142    75    76    1
   143    95    94    1
   144    95    96    1
   145   115   114    2
   146   113   116    1
   147   113   112    1
   148   113   114    1
   149    82    84    1
   150    82    83    1
   151    31    32    1
   152    96    97    2
   153    76    77    2
