@<TRIPOS>MOLECULE
tmp/2ot1C00.pdb
 87 80 0 0 0
SMALL
GASTEIGER

@<TRIPOS>ATOM
      1  N         -0.1810   38.3940    9.9650 N.3    34  GLU34      -0.1245
      2  CA        -0.6380   39.3030   11.0120 C.3    34  GLU34       0.1567
      3  C         -1.9060   38.7350   11.6480 C.2    34  GLU34       0.2260
      4  O         -2.7960   38.2380   10.9500 O.2    34  GLU34      -0.2867
      5  CB        -0.9420   40.6920   10.4450 C.3    34  GLU34       0.0388
      6  CG         0.2360   41.4010    9.7900 C.3    34  GLU34       0.1160
      7  CD         0.5180   40.9080    8.3820 C.2    34  GLU34       0.3649
      8  OE1       -0.3230   40.1720    7.8210 O.co2  34  GLU34      -0.2457
      9  OE2        1.5770   41.2700    7.8280 O.co2  34  GLU34      -0.2457
     10  N         -3.4230   42.3130   15.3070 N.3    38  SER38      -0.1202
     11  CA        -2.3120   43.0510   14.7220 C.3    38  SER38       0.2020
     12  C         -2.7210   43.7140   13.4100 C.2    38  SER38       0.2618
     13  O         -2.3180   44.8410   13.1160 O.2    38  SER38      -0.2717
     14  CB        -1.1390   42.1040   14.4770 C.3    38  SER38       0.2103
     15  OG        -0.0800   42.7740   13.8240 O.3    38  SER38      -0.2182
     16  N         -3.5220   43.0040   12.6230 N.am   39  ILE39      -0.1979
     17  CA        -3.9910   43.5170   11.3430 C.3    39  ILE39       0.1595
     18  C         -4.9770   44.6660   11.5680 C.2    39  ILE39       0.2287
     19  O         -5.2730   45.4310   10.6520 O.2    39  ILE39      -0.2864
     20  CB        -4.6800   42.4020   10.5210 C.3    39  ILE39       0.0276
     21  CG1       -4.9340   42.8800    9.0930 C.3    39  ILE39       0.0022
     22  CG2       -5.9840   41.9990   11.1770 C.3    39  ILE39       0.0022
     23  CD1       -3.6660   43.1380    8.3080 C.3    39  ILE39       0.0001
     24  N         -3.2530   47.9730   11.0000 N.3    42  ARG42      -0.1245
     25  CA        -2.9950   48.1400    9.5720 C.3    42  ARG42       0.1563
     26  C         -4.2420   48.6410    8.8470 C.2    42  ARG42       0.2260
     27  O         -4.1710   49.5540    8.0250 O.2    42  ARG42      -0.2867
     28  CB        -2.5580   46.8130    8.9470 C.3    42  ARG42       0.0307
     29  CG        -1.0520   46.5860    8.8490 C.3    42  ARG42       0.0489
     30  CD        -0.3830   46.4770   10.2060 C.3    42  ARG42       0.2205
     31  NE        -0.0650   47.7790   10.7820 N.pl3  42  ARG42      -0.0865
     32  CZ         0.6410   47.9410   11.8970 C.cat  42  ARG42       0.5346
     33  NH1        1.0970   46.8810   12.5500 N.pl3  42  ARG42       0.1354
     34  NH2        0.9020   49.1590   12.3530 N.pl3  42  ARG42       0.1354
     35  N         -7.8360   41.5800    1.4310 N.3    58  TYR58      -0.1241
     36  CA        -6.4600   42.0680    1.4610 C.3    58  TYR58       0.1605
     37  C         -5.4570   40.9430    1.2100 C.2    58  TYR58       0.2264
     38  O         -4.5300   41.0930    0.4130 O.2    58  TYR58      -0.2867
     39  CB        -6.1500   42.7390    2.8040 C.3    58  TYR58       0.0534
     40  CG        -4.7320   43.2620    2.8840 C.ar   58  TYR58      -0.0201
     41  CD1       -4.2370   44.1320    1.9120 C.ar   58  TYR58      -0.0009
     42  CD2       -3.8760   42.8690    3.9150 C.ar   58  TYR58      -0.0009
     43  CE1       -2.9210   44.5970    1.9590 C.ar   58  TYR58       0.0417
     44  CE2       -2.5550   43.3310    3.9740 C.ar   58  TYR58       0.0417
     45  CZ        -2.0870   44.1930    2.9910 C.ar   58  TYR58       0.1957
     46  OH        -0.7890   44.6500    3.0310 O.3    58  TYR58      -0.2866
     47  N         12.3860   44.3830   10.6830 N.3   272  GLY272     -0.1225
     48  CA        12.1910   45.2230   11.8490 C.3   272  GLY272      0.1811
     49  C         11.5280   46.5470   11.5240 C.2   272  GLY272      0.2280
     50  O         10.4220   46.5740   10.9840 O.2   272  GLY272     -0.2866
     51  N          7.3190   41.4660    6.0120 N.3   302  GLY302     -0.1210
     52  CA         5.8920   41.6930    6.1410 C.3   302  GLY302      0.1956
     53  C          5.6020   43.1410    5.8060 C.2   302  GLY302      0.2611
     54  O          4.9180   43.4450    4.8270 O.2   302  GLY302     -0.2717
     55  N          6.1360   44.0380    6.6260 N.am  303  ARG303     -0.1979
     56  CA         5.9600   45.4700    6.4280 C.3   303  ARG303      0.1597
     57  C          6.7390   45.9470    5.2020 C.2   303  ARG303      0.2287
     58  O          6.2730   46.8100    4.4570 O.2   303  ARG303     -0.2864
     59  CB         6.4440   46.2310    7.6650 C.3   303  ARG303      0.0334
     60  CG         6.5110   47.7370    7.4790 C.3   303  ARG303      0.0492
     61  CD         7.2390   48.4010    8.6350 C.3   303  ARG303      0.2205
     62  NE         7.4800   49.8190    8.3840 N.pl3 303  ARG303     -0.0865
     63  CZ         8.1650   50.6130    9.1980 C.cat 303  ARG303      0.5346
     64  NH1        8.6790   50.1290   10.3200 N.pl3 303  ARG303      0.1354
     65  NH2        8.3400   51.8900    8.8870 N.pl3 303  ARG303      0.1354
     66  N          4.5260   44.8640    2.1200 N.3   306  GLN306     -0.1231
     67  CA         3.1390   45.3100    2.0400 C.3   306  GLN306      0.1698
     68  C          2.8710   46.7960    2.2590 C.2   306  GLN306      0.2592
     69  O          1.8610   47.3180    1.7840 O.2   306  GLN306     -0.2718
     70  CB         2.3090   44.5310    3.0540 C.3   306  GLN306      0.0381
     71  CG         2.4360   43.0260    2.9640 C.3   306  GLN306      0.0905
     72  CD         1.6990   42.3400    4.0930 C.2   306  GLN306      0.2608
     73  OE1        0.4990   42.5460    4.2770 O.2   306  GLN306     -0.2717
     74  NE2        2.4140   41.5260    4.8640 N.am  306  GLN306     -0.0878
     75  N          3.7550   47.4600    2.9950 N.am  307  ALA307     -0.1980
     76  CA         3.6070   48.8790    3.3080 C.3   307  ALA307      0.1597
     77  C          2.8810   49.6990    2.2430 C.2   307  ALA307      0.2287
     78  O          1.7750   50.1880    2.4770 O.2   307  ALA307     -0.2864
     79  CB         4.9750   49.4940    3.5820 C.3   307  ALA307      0.0319
     80  N         -0.6360   48.2530    0.9780 N.3   310  LEU310     -0.1245
     81  CA        -1.7140   48.5340    1.9170 C.3   310  LEU310      0.1561
     82  C         -2.2120   49.9640    1.7220 C.2   310  LEU310      0.2260
     83  O         -3.4180   50.2150    1.6800 O.2   310  LEU310     -0.2867
     84  CB        -1.2180   48.3590    3.3540 C.3   310  LEU310      0.0270
     85  CG        -2.2620   48.5220    4.4580 C.3   310  LEU310      0.0019
     86  CD1       -3.2280   47.3500    4.4120 C.3   310  LEU310      0.0001
     87  CD2       -1.5760   48.5930    5.8130 C.3   310  LEU310      0.0001
@<TRIPOS>BOND
     1    38    37    2
     2    80    81    1
     3    37    36    1
     4    35    36    1
     5    36    39    1
     6    83    82    2
     7    82    81    1
     8    69    68    2
     9    41    43   ar
    10    41    40   ar
    11    81    84    1
    12    43    45   ar
    13    67    66    1
    14    67    68    1
    15    67    70    1
    16    77    78    2
    17    77    76    1
    18    68    75   am
    19    39    40    1
    20    40    42   ar
    21    71    70    1
    22    71    72    1
    23    45    46    1
    24    45    44   ar
    25    75    76    1
    26    76    79    1
    27    84    85    1
    28    42    44   ar
    29    72    73    2
    30    72    74   am
    31    86    85    1
    32    58    57    2
    33    85    87    1
    34    54    53    2
    35    57    56    1
    36    53    52    1
    37    53    55   am
    38    51    52    1
    39    56    55    1
    40    56    59    1
    41    60    59    1
    42    60    61    1
    43     8     7   ar
    44     9     7   ar
    45    27    26    2
    46    23    21    1
    47     7     6    1
    48    62    61    1
    49    62    63    2
    50    26    25    1
    51    29    28    1
    52    29    30    1
    53    65    63    1
    54    28    25    1
    55    21    20    1
    56    63    64    1
    57    25    24    1
    58     6     5    1
    59     1     2    1
    60    30    31    1
    61     5     2    1
    62    20    22    1
    63    20    17    1
    64    19    18    2
    65    47    48    1
    66    31    32    2
    67     4     3    2
    68    50    49    2
    69     2     3    1
    70    17    18    1
    71    17    16    1
    72    49    48    1
    73    32    34    1
    74    32    33    1
    75    16    12   am
    76    13    12    2
    77    12    11    1
    78    15    14    1
    79    14    11    1
    80    11    10    1
