@<TRIPOS>MOLECULE
tmp/2ot4A11.pdb
 83 82 0 0 0
SMALL
GASTEIGER

@<TRIPOS>ATOM
      1  N          3.0120   20.9660  128.1800 N.3     4  PRO4       -0.2102
      2  CA         2.6970   20.7420  129.5760 C.3     4  PRO4        0.1504
      3  C          2.1930   19.3530  129.8430 C.2     4  PRO4        0.2576
      4  O          1.5830   18.7240  128.9750 O.2     4  PRO4       -0.2718
      5  CB         1.5860   21.7570  129.8600 C.3     4  PRO4        0.0282
      6  CG         0.9620   22.0030  128.5400 C.3     4  PRO4        0.0208
      7  CD         2.0640   21.9040  127.5420 C.3     4  PRO4        0.0893
      8  N          2.4020   18.9240  131.0710 N.am    5  VAL5       -0.1966
      9  CA         1.9110   17.6360  131.5350 C.3     5  VAL5        0.1727
     10  C          0.7750   17.8330  132.5100 C.2     5  VAL5        0.2616
     11  O          0.5740   18.9080  133.0360 O.2     5  VAL5       -0.2715
     12  CB         3.0160   16.8130  132.2000 C.3     5  VAL5        0.0290
     13  CG1        4.1640   16.5470  131.2070 C.3     5  VAL5        0.0023
     14  CG2        3.4960   17.4600  133.5020 C.3     5  VAL5        0.0023
     15  N          0.0170   16.7510  132.7470 N.am    6  ASP6       -0.1957
     16  CA        -1.1100   16.7830  133.6540 C.3     6  ASP6        0.1840
     17  C         -0.6150   16.6960  135.0970 C.2     6  ASP6        0.2622
     18  O         -0.3740   15.6050  135.6120 O.2     6  ASP6       -0.2715
     19  CB        -2.0160   15.5880  133.3240 C.3     6  ASP6        0.1450
     20  CG        -3.2380   15.5290  134.1870 C.2     6  ASP6        0.3671
     21  OD1       -3.4100   16.3490  135.1110 O.co2   6  ASP6       -0.2456
     22  OD2       -4.0880   14.6510  133.8770 O.co2   6  ASP6       -0.2456
     23  N         -0.4080   17.8540  135.7210 N.am    7  ALA7       -0.1963
     24  CA         0.0990   17.9030  137.0960 C.3     7  ALA7        0.1728
     25  C         -0.8600   17.2040  138.0820 C.2     7  ALA7        0.2616
     26  O         -0.4030   16.6350  139.0800 O.2     7  ALA7       -0.2715
     27  CB         0.3420   19.3460  137.5350 C.3     7  ALA7        0.0334
     28  N         -2.1730   17.2940  137.8420 N.am    8  MET8       -0.1977
     29  CA        -3.1290   16.6640  138.7660 C.3     8  MET8        0.1605
     30  C         -2.8950   15.1710  138.8540 C.2     8  MET8        0.2287
     31  O         -3.0700   14.5740  139.9350 O.2     8  MET8       -0.2864
     32  CB        -4.5710   16.9480  138.3450 C.3     8  MET8        0.0413
     33  CG        -4.9540   18.4030  138.5180 C.3     8  MET8        0.0598
     34  SD        -4.7470   19.1380  140.1540 S.3     8  MET8       -0.1393
     35  CE        -5.5970   18.0130  141.2610 C.3     8  MET8        0.0692
     36  N         -0.0240   14.5600  141.0900 N.3    11  PHE11      -0.1241
     37  CA        -0.4360   14.7620  142.4810 C.3    11  PHE11       0.1605
     38  C         -1.1850   13.5700  143.0740 C.2    11  PHE11       0.2264
     39  O         -1.2620   13.4580  144.2930 O.2    11  PHE11      -0.2867
     40  CB        -1.2940   16.0070  142.6110 C.3    11  PHE11       0.0534
     41  CG        -0.5750   17.3090  142.2990 C.ar   11  PHE11      -0.0203
     42  CD1        0.7940   17.4450  142.4980 C.ar   11  PHE11      -0.0042
     43  CD2       -1.2890   18.3940  141.8550 C.ar   11  PHE11      -0.0042
     44  CE1        1.4120   18.6780  142.2280 C.ar   11  PHE11      -0.0003
     45  CE2       -0.6620   19.6120  141.6000 C.ar   11  PHE11      -0.0003
     46  CZ         0.6740   19.7270  141.7950 C.ar   11  PHE11      -0.0000
     47  N          3.3460   22.9980  145.8540 N.3    21  HIS21      -0.1241
     48  CA         3.2040   23.6060  144.5360 C.3    21  HIS21       0.1621
     49  C          1.8940   24.3740  144.4160 C.2    21  HIS21       0.2264
     50  O          1.8340   25.4730  143.8560 O.2    21  HIS21      -0.2867
     51  CB         3.2940   22.4980  143.4980 C.3    21  HIS21       0.0745
     52  CG         3.3210   22.9780  142.0880 C.ar   21  HIS21       0.0817
     53  ND1        2.1790   23.1620  141.3360 N.ar   21  HIS21      -0.2268
     54  CD2        4.3660   23.2650  141.2700 C.ar   21  HIS21       0.1154
     55  CE1        2.5310   23.5550  140.1190 C.ar   21  HIS21       0.1986
     56  NE2        3.8480   23.6320  140.0600 N.ar   21  HIS21      -0.2212
     57  N          2.4370   27.9480  141.4820 N.3    27  ALA27      -0.1231
     58  CA         1.2690   27.1110  141.2190 C.3    27  ALA27       0.1694
     59  C          0.9110   26.9940  139.7480 C.2    27  ALA27       0.2593
     60  O          0.3100   25.9940  139.3300 O.2    27  ALA27      -0.2718
     61  CB         0.0930   27.6220  142.0020 C.3    27  ALA27       0.0304
     62  N          1.2790   27.9940  138.9540 N.am   28  THR28      -0.1939
     63  CA         1.0300   27.9660  137.5230 C.3    28  THR28       0.2028
     64  C          2.2180   27.4700  136.6920 C.2    28  THR28       0.2642
     65  O          2.1280   27.4260  135.4690 O.2    28  THR28      -0.2714
     66  CB         0.6470   29.3690  137.0080 C.3    28  THR28       0.1808
     67  OG1        1.7910   30.2290  137.0920 O.3    28  THR28      -0.2208
     68  CG2       -0.5310   29.9590  137.7690 C.3    28  THR28       0.0379
     69  N          3.2920   27.0340  137.3410 N.am   29  VAL29      -0.1963
     70  CA         4.4930   26.6300  136.6250 C.3    29  VAL29       0.1727
     71  C          4.4510   25.1270  136.4500 C.2    29  VAL29       0.2616
     72  O          4.5320   24.3710  137.4090 O.2    29  VAL29      -0.2715
     73  CB         5.7800   27.0590  137.3530 C.3    29  VAL29       0.0290
     74  CG1        6.9940   26.5670  136.5660 C.3    29  VAL29       0.0023
     75  CG2        5.8200   28.5840  137.4970 C.3    29  VAL29       0.0023
     76  N          4.3060   24.6820  135.2130 N.am   30  ASN30      -0.1972
     77  CA         4.1120   23.2770  134.9490 C.3    30  ASN30       0.1688
     78  C          5.3720   22.4620  135.1670 C.2    30  ASN30       0.2292
     79  O          6.4810   22.9250  134.9010 O.2    30  ASN30      -0.2864
     80  CB         3.6250   23.1090  133.5120 C.3    30  ASN30       0.1181
     81  CG         3.1350   21.6950  133.2210 C.2    30  ASN30       0.2629
     82  OD1        3.8630   20.8650  132.6780 O.2    30  ASN30      -0.2716
     83  ND2        1.8970   21.4200  133.6170 N.am   30  ASN30      -0.0877
@<TRIPOS>BOND
     1     7     1    1
     2     7     6    1
     3     1     2    1
     4     6     5    1
     5     4     3    2
     6     2     3    1
     7     2     5    1
     8     3     8   am
     9     8     9    1
    10    13    12    1
    11     9    12    1
    12     9    10    1
    13    12    14    1
    14    10    15   am
    15    10    11    2
    16    82    81    2
    17    15    16    1
    18    81    80    1
    19    81    83   am
    20    19    16    1
    21    19    20    1
    22    80    77    1
    23    16    17    1
    24    22    20   ar
    25    20    21   ar
    26    79    78    2
    27    77    78    1
    28    77    76    1
    29    17    18    2
    30    17    23   am
    31    76    71   am
    32    65    64    2
    33    23    24    1
    34    71    70    1
    35    71    72    2
    36    74    73    1
    37    70    69    1
    38    70    73    1
    39    64    69   am
    40    64    63    1
    41    66    67    1
    42    66    63    1
    43    66    68    1
    44    24    27    1
    45    24    25    1
    46    73    75    1
    47    63    62    1
    48    28    25   am
    49    28    29    1
    50    25    26    2
    51    32    33    1
    52    32    29    1
    53    33    34    1
    54    29    30    1
    55    30    31    2
    56    62    59   am
    57    60    59    2
    58    59    58    1
    59    56    55   ar
    60    56    54   ar
    61    55    53   ar
    62    34    35    1
    63    36    37    1
    64    58    57    1
    65    58    61    1
    66    54    52   ar
    67    53    52   ar
    68    45    46   ar
    69    45    43   ar
    70    46    44   ar
    71    43    41   ar
    72    52    51    1
    73    44    42   ar
    74    41    42   ar
    75    41    40    1
    76    37    40    1
    77    37    38    1
    78    38    39    2
    79    51    48    1
    80    50    49    2
    81    49    48    1
    82    48    47    1
