@<TRIPOS>MOLECULE
tmp/2ot9A00.pdb
 77 73 0 0 0
SMALL
GASTEIGER

@<TRIPOS>ATOM
      1  N         13.2380   55.2250    1.8020 N.3    38  ARG38      -0.1245
      2  CA        14.7030   55.3830    1.7610 C.3    38  ARG38       0.1563
      3  C         15.1010   56.8310    2.0030 C.2    38  ARG38       0.2260
      4  O         15.9570   57.1260    2.8320 O.2    38  ARG38      -0.2867
      5  CB        15.2630   54.8780    0.4180 C.3    38  ARG38       0.0307
      6  CG        16.7990   55.0000    0.3260 C.3    38  ARG38       0.0489
      7  CD        17.3520   54.3180   -0.9370 C.3    38  ARG38       0.2205
      8  NE        17.2020   52.8710   -0.8440 N.pl3  38  ARG38      -0.0865
      9  CZ        18.1000   52.0460   -0.3070 C.cat  38  ARG38       0.5346
     10  NH1       19.2580   52.5160    0.1350 N.pl3  38  ARG38       0.1354
     11  NH2       17.8580   50.7320   -0.2590 N.pl3  38  ARG38       0.1354
     12  N         23.9800   58.8140   -2.9610 N.3    58  GLY58      -0.1210
     13  CA        23.3500   57.5770   -2.4520 C.3    58  GLY58       0.1956
     14  C         23.3050   56.4470   -3.4720 C.2    58  GLY58       0.2611
     15  O         24.3040   56.1860   -4.1560 O.2    58  GLY58      -0.2717
     16  N         22.1390   55.8050   -3.6040 N.am   59  LEU59      -0.1979
     17  CA        21.9880   54.6420   -4.4860 C.3    59  LEU59       0.1596
     18  C         22.2820   54.8920   -5.9730 C.2    59  LEU59       0.2287
     19  O         22.5340   53.9420   -6.7180 O.2    59  LEU59      -0.2864
     20  CB        20.6130   53.9500   -4.3030 C.3    59  LEU59       0.0297
     21  CG        19.2560   54.6310   -4.5400 C.3    59  LEU59       0.0022
     22  CD1       19.2130   55.4420   -5.8170 C.3    59  LEU59       0.0001
     23  CD2       18.1680   53.5630   -4.5580 C.3    59  LEU59       0.0001
     24  N         27.6070   54.4050   -7.0140 N.3    62  VAL62      -0.1245
     25  CA        28.2500   53.4220   -6.1400 C.3    62  VAL62       0.1561
     26  C         29.4450   53.9650   -5.3350 C.2    62  VAL62       0.2260
     27  O         29.7730   53.4350   -4.2750 O.2    62  VAL62      -0.2867
     28  CB        28.6650   52.1310   -6.8960 C.3    62  VAL62       0.0252
     29  CG1       27.4230   51.3250   -7.2810 C.3    62  VAL62       0.0019
     30  CG2       29.5330   52.4550   -8.1130 C.3    62  VAL62       0.0019
     31  N         25.5920   55.1530    5.4170 N.3    81  GLU81      -0.1231
     32  CA        24.7130   54.4770    4.4590 C.3    81  GLU81       0.1699
     33  C         23.3280   54.2580    5.0500 C.2    81  GLU81       0.2592
     34  O         23.1340   54.3610    6.2660 O.2    81  GLU81      -0.2718
     35  CB        25.3030   53.1210    4.0540 C.3    81  GLU81       0.0402
     36  CG        26.6480   53.2070    3.3260 C.3    81  GLU81       0.1161
     37  CD        26.5660   53.8040    1.9020 C.2    81  GLU81       0.3649
     38  OE1       25.5160   54.3790    1.4850 O.co2  81  GLU81      -0.2457
     39  OE2       27.5830   53.7100    1.1990 O.co2  81  GLU81      -0.2457
     40  N         22.3700   53.9540    4.1810 N.am   82  VAL82      -0.1966
     41  CA        21.0260   53.5660    4.6120 C.3    82  VAL82       0.1727
     42  C         20.6210   52.2900    3.8650 C.2    82  VAL82       0.2617
     43  O         21.1040   52.0350    2.7590 O.2    82  VAL82      -0.2715
     44  CB        19.9610   54.7010    4.4310 C.3    82  VAL82       0.0290
     45  CG1       20.4240   56.0140    5.1210 C.3    82  VAL82       0.0023
     46  CG2       19.6610   54.9470    2.9690 C.3    82  VAL82       0.0023
     47  N         19.7490   51.4990    4.4650 N.am   83  GLY83      -0.1940
     48  CA        19.2320   50.3020    3.7870 C.3    83  GLY83       0.2014
     49  C         20.0050   49.0520    4.1690 C.2    83  GLY83       0.2639
     50  O         20.3130   48.8450    5.3460 O.2    83  GLY83      -0.2714
     51  N         20.3520   48.2400    3.1710 N.am   84  GLN84      -0.1963
     52  CA        20.9430   46.9300    3.4180 C.3    84  GLN84       0.1718
     53  C         22.2040   46.7020    2.5700 C.2    84  GLN84       0.2458
     54  O         22.2340   45.7780    1.7520 O.2    84  GLN84      -0.2730
     55  CB        19.8940   45.8320    3.1640 C.3    84  GLN84       0.0407
     56  CG        18.7070   45.8940    4.1440 C.3    84  GLN84       0.0908
     57  CD        17.6610   44.8230    3.9170 C.2    84  GLN84       0.2608
     58  OE1       17.9190   43.7940    3.2870 O.2    84  GLN84      -0.2717
     59  NE2       16.4590   45.0660    4.4270 N.am   84  GLN84      -0.0878
     60  N         23.2550   47.5290    2.7670 N.am   85  PRO85      -0.2727
     61  CA        24.5050   47.2780    2.0240 C.3    85  PRO85       0.1402
     62  C         25.1280   45.9660    2.4950 C.2    85  PRO85       0.2269
     63  O         24.9020   45.5640    3.6430 O.2    85  PRO85      -0.2865
     64  CB        25.3980   48.4580    2.4160 C.3    85  PRO85       0.0296
     65  CG        24.8700   48.9140    3.7530 C.3    85  PRO85       0.0237
     66  CD        23.3790   48.6750    3.6970 C.3    85  PRO85       0.0939
     67  N         30.8090   45.9590    0.9620 N.3    89  ARG89      -0.1245
     68  CA        30.6900   47.4180    0.7910 C.3    89  ARG89       0.1563
     69  C         31.0400   48.1350    2.0870 C.2    89  ARG89       0.2260
     70  O         31.7950   49.1160    2.0850 O.2    89  ARG89      -0.2867
     71  CB        29.2780   47.8270    0.3280 C.3    89  ARG89       0.0307
     72  CG        29.1650   49.3570    0.1360 C.3    89  ARG89       0.0489
     73  CD        27.8980   49.8470   -0.5620 C.3    89  ARG89       0.2205
     74  NE        27.8900   51.3220   -0.5910 N.pl3  89  ARG89      -0.0865
     75  CZ        28.4800   52.0750   -1.5180 C.cat  89  ARG89       0.5346
     76  NH1       29.1270   51.5160   -2.5420 N.pl3  89  ARG89       0.1354
     77  NH2       28.4040   53.4060   -1.4340 N.pl3  89  ARG89       0.1354
@<TRIPOS>BOND
     1    30    28    1
     2    29    28    1
     3    24    25    1
     4    28    25    1
     5    19    18    2
     6    25    26    1
     7    18    17    1
     8    22    21    1
     9    26    27    2
    10    23    21    1
    11    21    20    1
    12    17    20    1
    13    17    16    1
    14    15    14    2
    15    16    14   am
    16    14    13    1
    17    12    13    1
    18    76    75    1
    19    75    77    1
    20    75    74    2
    21     7     8    1
    22     7     6    1
    23     8     9    2
    24    74    73    1
    25    73    72    1
    26     9    11    1
    27     9    10    1
    28    72    71    1
    29     6     5    1
    30    71    68    1
    31     5     2    1
    32    68    67    1
    33    68    69    1
    34    39    37   ar
    35    38    37   ar
    36    54    53    2
    37     2     1    1
    38     2     3    1
    39    37    36    1
    40     3     4    2
    41    61    64    1
    42    61    62    1
    43    61    60    1
    44    70    69    2
    45    64    65    1
    46    62    63    2
    47    53    60   am
    48    53    52    1
    49    43    42    2
    50    60    66    1
    51    46    44    1
    52    55    52    1
    53    55    56    1
    54    51    52    1
    55    51    49   am
    56    58    57    2
    57    36    35    1
    58    66    65    1
    59    48    49    1
    60    48    47    1
    61    42    47   am
    62    42    41    1
    63    57    56    1
    64    57    59   am
    65    35    32    1
    66    49    50    2
    67    40    41    1
    68    40    33   am
    69    44    41    1
    70    44    45    1
    71    32    33    1
    72    32    31    1
    73    33    34    2
