@<TRIPOS>MOLECULE
tmp/2otcG00.pdb
 171 163 0 0 0
SMALL
GASTEIGER

@<TRIPOS>ATOM
      1  N         77.3740   16.4760    2.5540 N.3    53  LYS53      -0.1231
      2  CA        77.6350   17.6960    3.3100 C.3    53  LYS53       0.1693
      3  C         77.2320   17.4280    4.7520 C.2    53  LYS53       0.2592
      4  O         76.5400   16.4460    5.0330 O.2    53  LYS53      -0.2718
      5  CB        76.8090   18.8530    2.7950 C.3    53  LYS53       0.0285
      6  CG        77.2410   19.3400    1.4320 C.3    53  LYS53       0.0035
      7  CD        76.1940   20.2970    0.9280 C.3    53  LYS53       0.0206
      8  CE        76.5980   20.8370   -0.4180 C.3    53  LYS53       0.1093
      9  NZ        75.5240   21.6260   -0.9770 N.3    53  LYS53      -0.1314
     10  N         77.6670   18.2630    5.6930 N.am   54  ASP54      -0.1960
     11  CA        77.2710   18.0880    7.0880 C.3    54  ASP54       0.1840
     12  C         75.7750   18.2840    7.3540 C.2    54  ASP54       0.2623
     13  O         75.0310   18.8090    6.5190 O.2    54  ASP54      -0.2715
     14  CB        78.0290   19.0630    7.9760 C.3    54  ASP54       0.1450
     15  CG        79.5430   18.9350    7.9560 C.2    54  ASP54       0.3671
     16  OD1       80.0640   17.8270    8.1220 O.co2  54  ASP54      -0.2456
     17  OD2       80.1930   19.9670    7.7810 O.co2  54  ASP54      -0.2456
     18  N         75.3440   17.8750    8.5450 N.am   55  SER55      -0.1936
     19  CA        73.9660   18.0130    8.9800 C.3    55  SER55       0.2055
     20  C         73.7770   17.6280   10.4410 C.2    55  SER55       0.2644
     21  O         74.4060   16.6770   10.9080 O.2    55  SER55      -0.2714
     22  CB        73.0760   17.1310    8.1250 C.3    55  SER55       0.2130
     23  OG        71.7030   17.1050    8.4890 O.3    55  SER55      -0.2179
     24  N         72.9840   18.4030   11.1830 N.am   56  THR56      -0.1936
     25  CA        72.5730   17.9740   12.5000 C.3    56  THR56       0.2028
     26  C         71.0950   17.6550   12.3520 C.2    56  THR56       0.2642
     27  O         70.6980   16.5030   12.5160 O.2    56  THR56      -0.2714
     28  CB        72.7240   19.0630   13.5550 C.3    56  THR56       0.1808
     29  OG1       74.0970   19.4020   13.6040 O.3    56  THR56      -0.2208
     30  CG2       72.2910   18.6060   14.9350 C.3    56  THR56       0.0379
     31  N         70.2550   18.6740   12.1100 N.am   57  ARG57      -0.1963
     32  CA        68.8240   18.4740   11.9650 C.3    57  ARG57       0.1729
     33  C         68.4000   17.4530   10.9390 C.2    57  ARG57       0.2616
     34  O         67.8440   16.4550   11.3580 O.2    57  ARG57      -0.2715
     35  CB        68.1660   19.7820   11.6340 C.3    57  ARG57       0.0348
     36  CG        68.1860   20.6400   12.8750 C.3    57  ARG57       0.0492
     37  CD        68.1930   22.1070   12.5340 C.3    57  ARG57       0.2205
     38  NE        69.5200   22.4440   12.0800 N.pl3  57  ARG57      -0.0865
     39  CZ        70.4930   22.7890   12.9110 C.cat  57  ARG57       0.5346
     40  NH1       70.2980   22.8560   14.2220 N.pl3  57  ARG57       0.1354
     41  NH2       71.6940   23.0400   12.4060 N.pl3  57  ARG57       0.1354
     42  N         68.6600   17.6430    9.6540 N.am   58  THR58      -0.1951
     43  CA        68.2180   16.6840    8.6570 C.3    58  THR58       0.1897
     44  C         68.6190   15.2430    8.9670 C.2    58  THR58       0.2313
     45  O         67.7770   14.3490    8.8210 O.2    58  THR58      -0.2863
     46  CB        68.7670   17.0940    7.2840 C.3    58  THR58       0.1794
     47  OG1       68.4000   18.4570    7.0260 O.3    58  THR58      -0.2208
     48  CG2       68.1720   16.2430    6.1880 C.3    58  THR58       0.0378
     49  N         71.9410   13.8140    0.7310 N.3   106  ARG106     -0.1245
     50  CA        72.2960   15.2000    0.9850 C.3   106  ARG106      0.1563
     51  C         73.5180   15.4310    0.1180 C.2   106  ARG106      0.2260
     52  O         74.4510   14.6230    0.1720 O.2   106  ARG106     -0.2867
     53  CB        72.7010   15.4160    2.4160 C.3   106  ARG106      0.0307
     54  CG        73.1170   16.8280    2.7820 C.3   106  ARG106      0.0489
     55  CD        71.9770   17.3990    3.5780 C.3   106  ARG106      0.2205
     56  NE        72.4560   18.3180    4.5860 N.pl3 106  ARG106     -0.0865
     57  CZ        71.6360   19.1630    5.2120 C.cat 106  ARG106      0.5346
     58  NH1       70.3300   19.2240    4.9550 N.pl3 106  ARG106      0.1354
     59  NH2       72.1490   19.9730    6.1150 N.pl3 106  ARG106      0.1354
     60  N         68.8770   17.7900    0.8210 N.3   128  LEU128     -0.1245
     61  CA        69.3830   19.1080    0.5010 C.3   128  LEU128      0.1561
     62  C         70.3940   18.7800   -0.5540 C.2   128  LEU128      0.2260
     63  O         71.3220   17.9810   -0.3900 O.2   128  LEU128     -0.2867
     64  CB        70.1900   19.8580    1.5830 C.3   128  LEU128      0.0270
     65  CG        70.7270   21.2680    1.3090 C.3   128  LEU128      0.0019
     66  CD1       70.6940   22.0130    2.6110 C.3   128  LEU128      0.0001
     67  CD2       72.1560   21.2720    0.7790 C.3   128  LEU128      0.0001
     68  N         65.8120   22.2030   -1.5990 N.3   133  HIS133     -0.1241
     69  CA        65.8560   21.7210   -0.2450 C.3   133  HIS133      0.1621
     70  C         64.4130   21.4810    0.1590 C.2   133  HIS133      0.2264
     71  O         63.9440   22.0500    1.1410 O.2   133  HIS133     -0.2867
     72  CB        66.5220   22.7830    0.6290 C.3   133  HIS133      0.0745
     73  CG        66.8200   22.2960    2.0310 C.ar  133  HIS133      0.0817
     74  ND1       66.8500   21.0540    2.5070 N.ar  133  HIS133     -0.2268
     75  CD2       67.1340   23.1350    3.0580 C.ar  133  HIS133      0.1154
     76  CE1       67.1760   21.1170    3.7760 C.ar  133  HIS133      0.1986
     77  NE2       67.3450   22.3750    4.1020 N.ar  133  HIS133     -0.2212
     78  N         62.8710   21.0090    3.8500 N.3   136  GLN136     -0.1245
     79  CA        62.8360   22.1660    4.7350 C.3   136  GLN136      0.1566
     80  C         61.5110   22.8990    4.6530 C.2   136  GLN136      0.2260
     81  O         60.8560   23.1800    5.6510 O.2   136  GLN136     -0.2867
     82  CB        63.9480   23.1340    4.3600 C.3   136  GLN136      0.0367
     83  CG        64.0650   24.3710    5.2310 C.3   136  GLN136      0.0905
     84  CD        64.5010   24.0480    6.6410 C.2   136  GLN136      0.2608
     85  OE1       65.5520   23.4430    6.8230 O.2   136  GLN136     -0.2717
     86  NE2       63.7850   24.3810    7.6980 N.am  136  GLN136     -0.0878
     87  N         70.4840   30.9720   -3.3310 N.3   166  ASN166     -0.1225
     88  CA        70.9090   29.6970   -2.7790 C.3   166  ASN166      0.1785
     89  C         69.7620   28.6960   -2.8490 C.2   166  ASN166      0.2597
     90  O         68.6780   28.9800   -3.3690 O.2   166  ASN166     -0.2718
     91  CB        71.3650   29.8590   -1.3290 C.3   166  ASN166      0.1169
     92  CG        70.2870   30.1470   -0.3040 C.2   166  ASN166      0.2627
     93  OD1       69.1220   30.3750   -0.6080 O.2   166  ASN166     -0.2716
     94  ND2       70.6720   30.1190    0.9630 N.am  166  ASN166     -0.0877
     95  N         70.0260   27.4880   -2.3650 N.am  167  ASN167     -0.1960
     96  CA        69.0190   26.4420   -2.3860 C.3   167  ASN167      0.1819
     97  C         67.7480   26.8260   -1.6560 C.2   167  ASN167      0.2621
     98  O         66.6520   26.3950   -2.0080 O.2   167  ASN167     -0.2715
     99  CB        69.5630   25.1530   -1.7780 C.3   167  ASN167      0.1195
    100  CG        70.2340   25.3010   -0.4300 C.2   167  ASN167      0.2630
    101  OD1       71.4450   25.4400   -0.3450 O.2   167  ASN167     -0.2716
    102  ND2       69.5440   25.2510    0.7050 N.am  167  ASN167     -0.0877
    103  N         67.8720   27.6540   -0.6270 N.am  168  MET168     -0.1977
    104  CA        66.7040   28.1020    0.0990 C.3   168  MET168      0.1605
    105  C         65.8400   29.1000   -0.6410 C.2   168  MET168      0.2287
    106  O         64.6210   29.1400   -0.4370 O.2   168  MET168     -0.2864
    107  CB        67.1080   28.7250    1.4160 C.3   168  MET168      0.0413
    108  CG        67.4450   27.6610    2.4300 C.3   168  MET168      0.0598
    109  SD        66.0860   26.4880    2.6510 S.3   168  MET168     -0.1393
    110  CE        64.8410   27.5700    3.2900 C.3   168  MET168      0.0692
    111  N         68.8560   33.2610    5.9130 N.3   231  ASP231     -0.1225
    112  CA        69.7980   32.1550    5.9470 C.3   231  ASP231      0.1805
    113  C         71.2150   32.6850    5.8560 C.2   231  ASP231      0.2597
    114  O         71.4350   33.8670    5.6020 O.2   231  ASP231     -0.2718
    115  CB        69.5180   31.2360    4.7780 C.3   231  ASP231      0.1424
    116  CG        70.2070   29.8820    4.7300 C.2   231  ASP231      0.3668
    117  OD1       70.8870   29.4540    5.6650 O.co2 231  ASP231     -0.2456
    118  OD2       70.0290   29.2320    3.7120 O.co2 231  ASP231     -0.2456
    119  N         72.1980   31.8280    6.1560 N.am  232  VAL232     -0.1980
    120  CA        73.6100   32.1920    6.0860 C.3   232  VAL232      0.1595
    121  C         73.9700   32.7800    4.7340 C.2   232  VAL232      0.2287
    122  O         73.3830   32.4100    3.7250 O.2   232  VAL232     -0.2864
    123  CB        74.4740   30.9570    6.3760 C.3   232  VAL232      0.0276
    124  CG1       74.1130   30.5180    7.7810 C.3   232  VAL232      0.0022
    125  CG2       74.2370   29.8060    5.4040 C.3   232  VAL232      0.0022
    126  N         76.6090   29.4390    1.6370 N.3   235  SER235     -0.1202
    127  CA        76.0800   28.1210    1.9300 C.3   235  SER235      0.2020
    128  C         77.1410   27.0490    1.9690 C.2   235  SER235      0.2618
    129  O         78.2980   27.2720    1.6110 O.2   235  SER235     -0.2717
    130  CB        75.0550   27.7290    0.8950 C.3   235  SER235      0.2103
    131  OG        73.9920   28.6630    0.8860 O.3   235  SER235     -0.2182
    132  N         76.7480   25.8720    2.4580 N.am  236  MET236     -0.1979
    133  CA        77.6230   24.7210    2.4390 C.3   236  MET236      0.1605
    134  C         78.0580   24.3690    1.0280 C.2   236  MET236      0.2287
    135  O         77.2380   24.1990    0.1240 O.2   236  MET236     -0.2864
    136  CB        76.9390   23.5090    3.0040 C.3   236  MET236      0.0413
    137  CG        76.7980   23.5560    4.4950 C.3   236  MET236      0.0598
    138  SD        76.3540   21.9110    5.0840 S.3   236  MET236     -0.1393
    139  CE        74.5890   22.0470    5.0000 C.3   236  MET236      0.0692
    140  N         66.2060   28.5190    8.8650 N.3   273  CYS273     -0.1221
    141  CA        66.3630   27.0820    8.7760 C.3   273  CYS273      0.1808
    142  C         67.4690   26.5150    9.6500 C.2   273  CYS273      0.2601
    143  O         67.4590   25.3500   10.0340 O.2   273  CYS273     -0.2717
    144  CB        66.6350   26.6880    7.3390 C.3   273  CYS273      0.0970
    145  SG        68.0660   27.4910    6.5590 S.3   273  CYS273     -0.0800
    146  N         68.4300   27.3740   10.0300 N.am  274  LEU274     -0.1966
    147  CA        69.6120   27.0580   10.8250 C.3   274  LEU274      0.1713
    148  C         70.6400   26.1800   10.0920 C.2   274  LEU274      0.2458
    149  O         70.3040   25.5580    9.0800 O.2   274  LEU274     -0.2730
    150  CB        69.2020   26.3780   12.1370 C.3   274  LEU274      0.0310
    151  CG        68.1100   27.0520   12.9650 C.3   274  LEU274      0.0022
    152  CD1       67.8070   26.2000   14.1740 C.3   274  LEU274      0.0001
    153  CD2       68.5380   28.4470   13.3580 C.3   274  LEU274      0.0001
    154  N         71.9310   26.0940   10.4670 N.am  275  PRO275     -0.2727
    155  CA        72.6360   26.9150   11.4460 C.3   275  PRO275      0.1402
    156  C         72.6050   28.4000   11.1680 C.2   275  PRO275      0.2269
    157  O         72.4930   28.7920   10.0110 O.2   275  PRO275     -0.2865
    158  CB        74.0420   26.3720   11.4500 C.3   275  PRO275      0.0296
    159  CG        74.1830   25.8450   10.0530 C.3   275  PRO275      0.0237
    160  CD        72.8620   25.1290    9.9040 C.3   275  PRO275      0.0939
    161  N         60.9670   19.8360   11.4270 N.3   319  ARG319     -0.1245
    162  CA        61.7150   19.1150   10.4160 C.3   319  ARG319      0.1563
    163  C         61.4740   17.6120   10.4770 C.2   319  ARG319      0.2260
    164  O         61.2840   16.9660    9.4450 O.2   319  ARG319     -0.2867
    165  CB        63.1930   19.3230   10.5860 C.3   319  ARG319      0.0307
    166  CG        63.7460   20.7150   10.3640 C.3   319  ARG319      0.0489
    167  CD        63.7380   21.1570    8.9120 C.3   319  ARG319      0.2205
    168  NE        64.2050   20.1310    8.0000 N.pl3 319  ARG319     -0.0865
    169  CZ        65.4800   19.9410    7.6460 C.cat 319  ARG319      0.5346
    170  NH1       66.4910   20.6870    8.0960 N.pl3 319  ARG319      0.1354
    171  NH2       65.7440   18.9430    6.8160 N.pl3 319  ARG319      0.1354
@<TRIPOS>BOND
     1    90    89    2
     2    87    88    1
     3    89    88    1
     4    89    95   am
     5    88    91    1
     6    96    95    1
     7    96    99    1
     8    96    97    1
     9    98    97    2
    10    99   100    1
    11    97   103   am
    12    68    69    1
    13    91    92    1
    14     9     8    1
    15   105   106    2
    16   105   104    1
    17   103   104    1
    18    93    92    2
    19    62    63    2
    20    62    61    1
    21   100   101    2
    22   100   102   am
    23     8     7    1
    24    92    94   am
    25    69    70    1
    26    69    72    1
    27   104   107    1
    28    51    52    2
    29    51    50    1
    30   135   134    2
    31    70    71    2
    32    61    60    1
    33    61    64    1
    34    72    73    1
    35    49    50    1
    36    67    65    1
    37   131   130    1
    38   130   127    1
    39     7     6    1
    40    50    53    1
    41   134   133    1
    42    65    64    1
    43    65    66    1
    44   107   108    1
    45     6     5    1
    46   129   128    2
    47   126   127    1
    48   127   128    1
    49   128   132   am
    50    73    74   ar
    51    73    75   ar
    52    53    54    1
    53   108   109    1
    54   133   132    1
    55   133   136    1
    56    74    76   ar
    57     1     2    1
    58   109   110    1
    59    54    55    1
    60     5     2    1
    61   136   137    1
    62    75    77   ar
    63     2     3    1
    64    55    56    1
    65   118   116   ar
    66   122   121    2
    67    76    77   ar
    68    78    79    1
    69    82    79    1
    70    82    83    1
    71   137   138    1
    72    56    57    2
    73    80    79    1
    74    80    81    2
    75   116   115    1
    76   116   117   ar
    77   121   120    1
    78     3     4    2
    79     3    10   am
    80   115   112    1
    81    58    57    1
    82   139   138    1
    83    57    59    1
    84    83    84    1
    85   125   123    1
    86   114   113    2
    87    10    11    1
    88   113   112    1
    89   113   119   am
    90   111   112    1
    91   120   119    1
    92   120   123    1
    93    48    46    1
    94   123   124    1
    95    13    12    2
    96   145   144    1
    97    84    85    2
    98    84    86   am
    99   171   169    1
   100    47    46    1
   101    11    12    1
   102    11    14    1
   103    46    43    1
   104   144   141    1
   105    12    18   am
   106   169   168    2
   107   169   170    1
   108    17    15   ar
   109    15    14    1
   110    15    16   ar
   111   168   167    1
   112    22    23    1
   113    22    19    1
   114    18    19    1
   115    43    44    1
   116    43    42    1
   117   141   140    1
   118   141   142    1
   119    45    44    2
   120   167   166    1
   121    19    20    1
   122   149   148    2
   123   164   163    2
   124   142   146   am
   125   142   143    2
   126    42    33   am
   127   160   159    1
   128   160   154    1
   129   157   156    2
   130   146   147    1
   131   159   158    1
   132   148   154   am
   133   148   147    1
   134   166   165    1
   135   162   163    1
   136   162   165    1
   137   162   161    1
   138    20    21    2
   139    20    24   am
   140   154   155    1
   141   147   150    1
   142    33    34    2
   143    33    32    1
   144   156   155    1
   145    24    25    1
   146   155   158    1
   147    35    32    1
   148    35    36    1
   149    32    31    1
   150    38    37    1
   151    38    39    2
   152    31    26   am
   153   150   151    1
   154    26    25    1
   155    26    27    2
   156    41    39    1
   157    25    28    1
   158    37    36    1
   159    39    40    1
   160   151   153    1
   161   151   152    1
   162    28    29    1
   163    28    30    1
