@<TRIPOS>MOLECULE
tmp/2otfA00.pdb
 113 108 0 0 0
SMALL
GASTEIGER

@<TRIPOS>ATOM
      1  N         10.9130   16.3780   -5.7140 N.3     2  LEU2       -0.1245
      2  CA         9.5140   16.7300   -5.5030 C.3     2  LEU2        0.1561
      3  C          8.7670   15.6600   -4.7140 C.2     2  LEU2        0.2260
      4  O          7.8510   15.9690   -3.9570 O.2     2  LEU2       -0.2867
      5  CB         8.8200   16.9510   -6.8560 C.3     2  LEU2        0.0270
      6  CG         8.6170   18.3750   -7.3780 C.3     2  LEU2        0.0019
      7  CD1        9.6350   19.3270   -6.7840 C.3     2  LEU2        0.0001
      8  CD2        8.7090   18.3540   -8.8930 C.3     2  LEU2        0.0001
      9  N          9.7200   16.2250   -1.0400 N.3     5  PHE5       -0.1241
     10  CA         9.1790   17.5170   -0.6330 C.3     5  PHE5        0.1605
     11  C          7.6650   17.4400   -0.4360 C.2     5  PHE5        0.2264
     12  O          7.1270   17.9790    0.5350 O.2     5  PHE5       -0.2867
     13  CB         9.5290   18.5920   -1.6730 C.3     5  PHE5        0.0534
     14  CG         9.2110   19.9990   -1.2290 C.ar    5  PHE5       -0.0203
     15  CD1        9.4160   20.3870    0.0900 C.ar    5  PHE5       -0.0042
     16  CD2        8.7350   20.9430   -2.1330 C.ar    5  PHE5       -0.0042
     17  CE1        9.1520   21.6940    0.5010 C.ar    5  PHE5       -0.0003
     18  CE2        8.4700   22.2470   -1.7310 C.ar    5  PHE5       -0.0003
     19  CZ         8.6810   22.6220   -0.4070 C.ar    5  PHE5       -0.0000
     20  N          5.5510   18.0360    3.0740 N.3     9  ILE9       -0.1245
     21  CA         4.4620   19.0030    3.1850 C.3     9  ILE9        0.1561
     22  C          3.1880   18.3590    3.7360 C.2     9  ILE9        0.2260
     23  O          2.5750   18.8830    4.6700 O.2     9  ILE9       -0.2867
     24  CB         4.1580   19.6550    1.8120 C.3     9  ILE9        0.0252
     25  CG1        5.3780   20.4550    1.3370 C.3     9  ILE9        0.0019
     26  CG2        2.9460   20.5620    1.9220 C.3     9  ILE9        0.0019
     27  CD1        5.2020   21.1340   -0.0190 C.3     9  ILE9        0.0001
     28  N          0.5510   18.9020   -1.4750 N.3    17  ALA17      -0.1231
     29  CA         1.3410   19.8970   -2.1980 C.3    17  ALA17       0.1694
     30  C          0.5780   20.4170   -3.4060 C.2    17  ALA17       0.2591
     31  O          0.4920   21.6250   -3.6310 O.2    17  ALA17      -0.2718
     32  CB         2.6460   19.2840   -2.6350 C.3    17  ALA17       0.0304
     33  N          0.0550   19.4900   -4.1990 N.am   18  ILE18      -0.1980
     34  CA        -0.7380   19.8340   -5.3700 C.3    18  ILE18       0.1595
     35  C         -2.1680   19.5000   -4.9450 C.2    18  ILE18       0.2287
     36  O         -2.4430   18.3700   -4.5460 O.2    18  ILE18      -0.2864
     37  CB        -0.3440   18.9570   -6.5820 C.3    18  ILE18       0.0276
     38  CG1        1.1250   19.1940   -6.9380 C.3    18  ILE18       0.0022
     39  CG2       -1.2430   19.2670   -7.7730 C.3    18  ILE18       0.0022
     40  CD1        1.6930   18.1560   -7.8810 C.3    18  ILE18       0.0001
     41  N         -0.1640   24.0030   -2.5610 N.3    21  TYR21      -0.1227
     42  CA         1.0580   24.8030   -2.5980 C.3    21  TYR21       0.1736
     43  C          1.7430   24.8360   -3.9610 C.2    21  TYR21       0.2596
     44  O          2.9250   25.1780   -4.0490 O.2    21  TYR21      -0.2718
     45  CB         2.0480   24.2770   -1.5530 C.3    21  TYR21       0.0548
     46  CG         1.5960   24.4540   -0.1240 C.ar   21  TYR21      -0.0200
     47  CD1        1.6670   25.7000    0.5030 C.ar   21  TYR21      -0.0009
     48  CD2        1.0920   23.3780    0.6040 C.ar   21  TYR21      -0.0009
     49  CE1        1.2470   25.8690    1.8250 C.ar   21  TYR21       0.0417
     50  CE2        0.6670   23.5350    1.9210 C.ar   21  TYR21       0.0417
     51  CZ         0.7500   24.7810    2.5260 C.ar   21  TYR21       0.1957
     52  OH         0.3450   24.9300    3.8290 O.3    21  TYR21      -0.2866
     53  N          1.0170   24.4890   -5.0200 N.am   22  SER22      -0.1952
     54  CA         1.6120   24.4850   -6.3530 C.3    22  SER22       0.1924
     55  C          1.2080   25.6720   -7.2250 C.2    22  SER22       0.2314
     56  O          1.8190   25.9150   -8.2630 O.2    22  SER22      -0.2863
     57  CB         1.2920   23.1660   -7.0710 C.3    22  SER22       0.2116
     58  OG        -0.0950   22.8810   -7.0340 O.3    22  SER22      -0.2180
     59  N          4.9430   32.9740   -5.5650 N.3    27  TYR27      -0.1241
     60  CA         6.1110   32.0900   -5.5510 C.3    27  TYR27       0.1605
     61  C          5.8900   30.6040   -5.3210 C.2    27  TYR27       0.2264
     62  O          6.7980   29.8110   -5.5620 O.2    27  TYR27      -0.2867
     63  CB         7.1390   32.5990   -4.5310 C.3    27  TYR27       0.0534
     64  CG         7.7460   33.9120   -4.9410 C.ar   27  TYR27      -0.0201
     65  CD1        7.1300   35.1220   -4.6180 C.ar   27  TYR27      -0.0009
     66  CD2        8.8920   33.9480   -5.7320 C.ar   27  TYR27      -0.0009
     67  CE1        7.6410   36.3330   -5.0790 C.ar   27  TYR27       0.0417
     68  CE2        9.4020   35.1450   -6.2000 C.ar   27  TYR27       0.0417
     69  CZ         8.7740   36.3330   -5.8750 C.ar   27  TYR27       0.1957
     70  OH         9.2750   37.5110   -6.3780 O.3    27  TYR27      -0.2866
     71  N          5.0350   27.4210   -6.5530 N.3    29  GLY29      -0.1225
     72  CA         4.7390   26.6970   -7.7750 C.3    29  GLY29       0.1811
     73  C          5.4580   27.1640   -9.0260 C.2    29  GLY29       0.2280
     74  O          6.2800   26.4320   -9.5790 O.2    29  GLY29      -0.2866
     75  N         12.2290   29.5450   -0.1100 N.3    47  HIS47      -0.1226
     76  CA        12.5270   28.2130   -0.6410 C.3    47  HIS47       0.1752
     77  C         13.1620   28.3500   -2.0250 C.2    47  HIS47       0.2596
     78  O         14.1360   27.6580   -2.3350 O.2    47  HIS47      -0.2718
     79  CB        11.2370   27.3720   -0.7260 C.3    47  HIS47       0.0759
     80  CG        11.4670   25.9270   -1.0730 C.ar   47  HIS47       0.0818
     81  ND1       11.0920   25.3810   -2.2810 N.ar   47  HIS47      -0.2268
     82  CD2       12.0210   24.9180   -0.3580 C.ar   47  HIS47       0.1154
     83  CE1       11.4030   24.0930   -2.2960 C.ar   47  HIS47       0.1986
     84  NE2       11.9670   23.7880   -1.1430 N.ar   47  HIS47      -0.2212
     85  N         12.6140   29.2350   -2.8610 N.am   48  ASP48      -0.1974
     86  CA        13.1800   29.4540   -4.1930 C.3    48  ASP48       0.1709
     87  C         14.6120   29.9660   -4.0630 C.2    48  ASP48       0.2293
     88  O         15.5030   29.5700   -4.8150 O.2    48  ASP48      -0.2864
     89  CB        12.3870   30.5030   -4.9780 C.3    48  ASP48       0.1436
     90  CG        11.1440   29.9400   -5.6280 C.2    48  ASP48       0.3671
     91  OD1       10.9420   28.7080   -5.5740 O.co2  48  ASP48      -0.2456
     92  OD2       10.3760   30.7430   -6.2000 O.co2  48  ASP48      -0.2456
     93  N         17.0250   27.2200   -3.0770 N.3    51  TYR51      -0.1241
     94  CA        17.3790   26.4010   -4.2330 C.3    51  TYR51       0.1605
     95  C         18.3660   27.2010   -5.0790 C.2    51  TYR51       0.2264
     96  O         19.3070   26.6510   -5.6480 O.2    51  TYR51      -0.2867
     97  CB        16.1320   26.0920   -5.0690 C.3    51  TYR51       0.0534
     98  CG        15.3280   24.8860   -4.6210 C.ar   51  TYR51      -0.0201
     99  CD1       15.6340   24.2020   -3.4420 C.ar   51  TYR51      -0.0009
    100  CD2       14.2710   24.4150   -5.3980 C.ar   51  TYR51      -0.0009
    101  CE1       14.9010   23.0720   -3.0520 C.ar   51  TYR51       0.0417
    102  CE2       13.5370   23.2930   -5.0210 C.ar   51  TYR51       0.0417
    103  CZ        13.8560   22.6270   -3.8510 C.ar   51  TYR51       0.1957
    104  OH        13.1300   21.5120   -3.4920 O.3    51  TYR51      -0.2866
    105  N         14.6750   19.2900   -8.0140 N.3    60  LYS60      -0.1245
    106  CA        13.4200   18.6570   -8.4170 C.3    60  LYS60       0.1561
    107  C         13.5110   17.1500   -8.6530 C.2    60  LYS60       0.2260
    108  O         12.5200   16.4430   -8.4760 O.2    60  LYS60      -0.2867
    109  CB        12.8550   19.3210   -9.6820 C.3    60  LYS60       0.0271
    110  CG        12.4190   20.7660   -9.4940 C.3    60  LYS60       0.0035
    111  CD        11.6220   21.2620  -10.6970 C.3    60  LYS60       0.0206
    112  CE        11.1670   22.7060  -10.5190 C.3    60  LYS60       0.1093
    113  NZ        10.2790   23.1440  -11.6400 N.3    60  LYS60      -0.1314
@<TRIPOS>BOND
     1   113   112    1
     2   111   112    1
     3   111   110    1
     4   109   110    1
     5   109   106    1
     6    74    73    2
     7    73    72    1
     8     8     6    1
     9   107   108    2
    10   107   106    1
    11   106   105    1
    12    56    55    2
    13    40    38    1
    14    72    71    1
    15    39    37    1
    16     6     5    1
    17     6     7    1
    18    55    54    1
    19    57    58    1
    20    57    54    1
    21    38    37    1
    22     5     2    1
    23    37    34    1
    24    70    69    1
    25    54    53    1
    26    68    69   ar
    27    68    66   ar
    28    92    90   ar
    29    69    67   ar
    30    66    64   ar
    31     1     2    1
    32    96    95    2
    33    90    91   ar
    34    90    89    1
    35    59    60    1
    36    62    61    2
    37    60    61    1
    38    60    63    1
    39     2     3    1
    40   100   102   ar
    41   100    98   ar
    42    34    35    1
    43    34    33    1
    44    95    94    1
    45    67    65   ar
    46    97    98    1
    47    97    94    1
    48   102   103   ar
    49    53    43   am
    50    89    86    1
    51    35    36    2
    52    64    65   ar
    53    64    63    1
    54    88    87    2
    55     3     4    2
    56    98    99   ar
    57    94    93    1
    58    33    30   am
    59    86    87    1
    60    86    85    1
    61    44    43    2
    62    43    42    1
    63   103   104    1
    64   103   101   ar
    65    31    30    2
    66    99   101   ar
    67    30    29    1
    68    85    77   am
    69    32    29    1
    70    42    41    1
    71    42    45    1
    72    78    77    2
    73    83    81   ar
    74    83    84   ar
    75    81    80   ar
    76    29    28    1
    77    16    18   ar
    78    16    14   ar
    79    77    76    1
    80    18    19   ar
    81    13    14    1
    82    13    10    1
    83    45    46    1
    84    14    15   ar
    85    84    82   ar
    86    80    79    1
    87    80    82   ar
    88     9    10    1
    89    79    76    1
    90    76    75    1
    91    10    11    1
    92    11    12    2
    93    19    17   ar
    94    46    47   ar
    95    46    48   ar
    96    27    25    1
    97    15    17   ar
    98    47    49   ar
    99    48    50   ar
   100    25    24    1
   101    24    26    1
   102    24    21    1
   103    49    51   ar
   104    50    51   ar
   105    51    52    1
   106    20    21    1
   107    21    22    1
   108    22    23    2
