@<TRIPOS>MOLECULE
tmp/2otuE00.pdb
 129 127 0 0 0
SMALL
GASTEIGER

@<TRIPOS>ATOM
      1  N         10.4030    3.9140  -35.5430 N.3    27  SER27      -0.1202
      2  CA         9.5120    5.0350  -35.2430 C.3    27  SER27       0.2020
      3  C          8.1490    4.7060  -34.6440 C.2    27  SER27       0.2619
      4  O          7.7120    5.3710  -33.7090 O.2    27  SER27      -0.2717
      5  CB         9.3170    5.9000  -36.4940 C.3    27  SER27       0.2103
      6  OG         8.6510    5.1840  -37.5120 O.3    27  SER27      -0.2182
      7  N          7.4780    3.6910  -35.1760 N.am   28  GLN28      -0.1965
      8  CA         6.1620    3.2940  -34.6800 C.3    28  GLN28       0.1733
      9  C          6.2190    2.8590  -33.2150 C.2    28  GLN28       0.2616
     10  O          5.2020    2.8510  -32.5180 O.2    28  GLN28      -0.2715
     11  CB         5.6180    2.1480  -35.5400 C.3    28  GLN28       0.0408
     12  CG         4.2160    1.6860  -35.1940 C.3    28  GLN28       0.0908
     13  CD         3.6980    0.6510  -36.1780 C.2    28  GLN28       0.2608
     14  OE1        3.7820    0.8390  -37.3900 O.2    28  GLN28      -0.2717
     15  NE2        3.1500   -0.4400  -35.6600 N.am   28  GLN28      -0.0878
     16  N          7.4160    2.5150  -32.7500 N.am   29  HIS29      -0.1959
     17  CA         7.5950    2.0470  -31.3800 C.3    29  HIS29       0.1787
     18  C          8.5440    2.9290  -30.5670 C.2    29  HIS29       0.2621
     19  O          9.1640    2.4680  -29.6060 O.2    29  HIS29      -0.2715
     20  CB         8.1180    0.6020  -31.4130 C.3    29  HIS29       0.0785
     21  CG         7.4580   -0.2560  -32.4570 C.ar   29  HIS29       0.0821
     22  ND1        7.8770   -0.3150  -33.7500 N.ar   29  HIS29      -0.2267
     23  CD2        6.3660   -1.0750  -32.3690 C.ar   29  HIS29       0.1154
     24  CE1        7.0870   -1.1300  -34.4500 C.ar   29  HIS29       0.1986
     25  NE2        6.1690   -1.5940  -33.6160 N.ar   29  HIS29      -0.2212
     26  N          8.6370    4.2010  -30.9420 N.am   30  SER30      -0.1936
     27  CA         9.5290    5.1460  -30.2740 C.3    30  SER30       0.2055
     28  C          9.3170    5.3350  -28.7730 C.2    30  SER30       0.2644
     29  O         10.1900    5.8670  -28.0950 O.2    30  SER30      -0.2714
     30  CB         9.4480    6.5130  -30.9620 C.3    30  SER30       0.2130
     31  OG         8.1340    7.0440  -30.8710 O.3    30  SER30      -0.2179
     32  N          8.1720    4.9090  -28.2490 N.am   31  THR31      -0.1936
     33  CA         7.8940    5.0730  -26.8210 C.3    31  THR31       0.2028
     34  C          8.2050    3.8300  -25.9870 C.2    31  THR31       0.2642
     35  O          7.9940    3.8220  -24.7750 O.2    31  THR31      -0.2714
     36  CB         6.4100    5.4180  -26.5730 C.3    31  THR31       0.1808
     37  OG1        5.5970    4.2940  -26.9310 O.3    31  THR31      -0.2208
     38  CG2        5.9870    6.6300  -27.4050 C.3    31  THR31       0.0379
     39  N          8.7160    2.7880  -26.6280 N.am   32  TYR32      -0.1959
     40  CA         9.0030    1.5370  -25.9320 C.3    32  TYR32       0.1771
     41  C         10.1410    1.5260  -24.9230 C.2    32  TYR32       0.2620
     42  O         11.1280    2.2520  -25.0480 O.2    32  TYR32      -0.2715
     43  CB         9.2500    0.4270  -26.9560 C.3    32  TYR32       0.0574
     44  CG         7.9980   -0.1430  -27.5750 C.ar   32  TYR32      -0.0198
     45  CD1        6.9240    0.6790  -27.9250 C.ar   32  TYR32      -0.0009
     46  CD2        7.8910   -1.5080  -27.8290 C.ar   32  TYR32      -0.0009
     47  CE1        5.7830    0.1570  -28.5200 C.ar   32  TYR32       0.0417
     48  CE2        6.7550   -2.0420  -28.4280 C.ar   32  TYR32       0.0417
     49  CZ         5.7010   -1.2040  -28.7660 C.ar   32  TYR32       0.1957
     50  OH         4.5760   -1.7300  -29.3530 O.3    32  TYR32      -0.2866
     51  N          9.9810    0.6820  -23.9100 N.am   33  THR33      -0.1951
     52  CA        11.0000    0.5020  -22.8920 C.3    33  THR33       0.1897
     53  C         11.8680   -0.6390  -23.4100 C.2    33  THR33       0.2313
     54  O         11.3440   -1.6550  -23.8760 O.2    33  THR33      -0.2863
     55  CB        10.3950    0.0700  -21.5460 C.3    33  THR33       0.1794
     56  OG1        9.6110    1.1410  -21.0040 O.3    33  THR33      -0.2208
     57  CG2       11.4990   -0.2970  -20.5650 C.3    33  THR33       0.0378
     58  N         15.7070   -3.0740  -22.9540 N.3    35  GLU35      -0.1245
     59  CA        16.6410   -3.6370  -21.9940 C.3    35  GLU35       0.1567
     60  C         18.0190   -3.5790  -22.6260 C.2    35  GLU35       0.2260
     61  O         18.1540   -3.6870  -23.8470 O.2    35  GLU35      -0.2867
     62  CB        16.3280   -5.1090  -21.6880 C.3    35  GLU35       0.0388
     63  CG        15.1040   -5.3590  -20.8380 C.3    35  GLU35       0.1160
     64  CD        13.8210   -5.1960  -21.6060 C.2    35  GLU35       0.3649
     65  OE1       13.6660   -5.8500  -22.6580 O.co2  35  GLU35      -0.2457
     66  OE2       12.9640   -4.4130  -21.1540 O.co2  35  GLU35      -0.2457
     67  N         16.9370   -1.6400  -17.5190 N.3    50  GLU50      -0.1245
     68  CA        15.6650   -1.4680  -18.2000 C.3    50  GLU50       0.1567
     69  C         15.5800    0.0440  -18.3750 C.2    50  GLU50       0.2260
     70  O         15.6280    0.7800  -17.3910 O.2    50  GLU50      -0.2867
     71  CB        14.5200   -1.9570  -17.3180 C.3    50  GLU50       0.0388
     72  CG        13.1400   -1.6770  -17.8820 C.3    50  GLU50       0.1160
     73  CD        12.0450   -2.0240  -16.8960 C.2    50  GLU50       0.3649
     74  OE1       11.2600   -2.9580  -17.1740 O.co2  50  GLU50      -0.2457
     75  OE2       11.9760   -1.3580  -15.8410 O.co2  50  GLU50      -0.2457
     76  N         13.9530   -5.5390  -26.9840 N.3    95  VAL95      -0.1231
     77  CA        12.6540   -4.9500  -26.7200 C.3    95  VAL95       0.1692
     78  C         11.5690   -6.0030  -26.8680 C.2    95  VAL95       0.2593
     79  O         11.5680   -6.7760  -27.8290 O.2    95  VAL95      -0.2718
     80  CB        12.3830   -3.7730  -27.6870 C.3    95  VAL95       0.0266
     81  CG1       12.4220   -4.2610  -29.1240 C.3    95  VAL95       0.0020
     82  CG2       11.0340   -3.1350  -27.3640 C.3    95  VAL95       0.0020
     83  N         10.6490   -6.0290  -25.9080 N.am   96  GLY96      -0.1942
     84  CA         9.5740   -6.9980  -25.9450 C.3    96  GLY96       0.2014
     85  C          8.2170   -6.3530  -26.1230 C.2    96  GLY96       0.2639
     86  O          8.0370   -5.1590  -25.8720 O.2    96  GLY96      -0.2714
     87  N          7.2620   -7.1550  -26.5750 N.am   97  ASP97      -0.1957
     88  CA         5.9020   -6.7010  -26.8000 C.3    97  ASP97       0.1840
     89  C          5.0430   -7.9330  -26.5520 C.2    97  ASP97       0.2623
     90  O          4.9260   -8.8040  -27.4140 O.2    97  ASP97      -0.2715
     91  CB         5.7570   -6.2040  -28.2440 C.3    97  ASP97       0.1450
     92  CG         4.7030   -5.1100  -28.3890 C.2    97  ASP97       0.3671
     93  OD1        4.6550   -4.4790  -29.4670 O.co2  97  ASP97      -0.2456
     94  OD2        3.9290   -4.8850  -27.4340 O.co2  97  ASP97      -0.2456
     95  N          4.4720   -8.0110  -25.3530 N.am   98  THR98      -0.1937
     96  CA         3.6410   -9.1460  -24.9670 C.3    98  THR98       0.2028
     97  C          2.2210   -9.0800  -25.5190 C.2    98  THR98       0.2642
     98  O          1.2440   -9.1650  -24.7730 O.2    98  THR98      -0.2714
     99  CB         3.5910   -9.2890  -23.4290 C.3    98  THR98       0.1808
    100  OG1        3.1360   -8.0620  -22.8440 O.3    98  THR98      -0.2208
    101  CG2        4.9780   -9.6230  -22.8860 C.3    98  THR98       0.0379
    102  N          2.1230   -8.9270  -26.8350 N.am   99  ILE99      -0.1963
    103  CA         0.8400   -8.8760  -27.5190 C.3    99  ILE99       0.1727
    104  C          0.1860  -10.2430  -27.3390 C.2    99  ILE99       0.2616
    105  O          0.7690  -11.2680  -27.6950 O.2    99  ILE99      -0.2715
    106  CB         1.0360   -8.5760  -29.0200 C.3    99  ILE99       0.0290
    107  CG1        1.7570   -7.2320  -29.1800 C.3    99  ILE99       0.0022
    108  CG2       -0.3110   -8.5520  -29.7330 C.3    99  ILE99       0.0023
    109  CD1        2.1660   -6.9150  -30.6030 C.3    99  ILE99       0.0001
    110  N         -1.0210  -10.2510  -26.7820 N.am  100  LYS100     -0.1977
    111  CA        -1.7450  -11.4910  -26.5190 C.3   100  LYS100      0.1596
    112  C         -1.8120  -12.4480  -27.7050 C.2   100  LYS100      0.2287
    113  O         -1.6390  -13.6560  -27.5410 O.2   100  LYS100     -0.2864
    114  CB        -3.1610  -11.1730  -26.0400 C.3   100  LYS100      0.0298
    115  CG        -3.9400  -12.3840  -25.5620 C.3   100  LYS100      0.0038
    116  CD        -5.3000  -11.9820  -25.0370 C.3   100  LYS100      0.0206
    117  CE        -6.0620  -13.1780  -24.4970 C.3   100  LYS100      0.1093
    118  NZ        -7.4080  -12.7700  -24.0170 N.3   100  LYS100     -0.1314
    119  N          3.4330  -13.0150  -28.9420 N.3   103  PHE103     -0.1241
    120  CA         4.5320  -12.3140  -28.3030 C.3   103  PHE103      0.1605
    121  C          5.6210  -12.0380  -29.3280 C.2   103  PHE103      0.2264
    122  O          5.7920  -12.7790  -30.3020 O.2   103  PHE103     -0.2867
    123  CB         5.1260  -13.1450  -27.1580 C.3   103  PHE103      0.0534
    124  CG         4.3210  -13.1080  -25.8890 C.ar  103  PHE103     -0.0203
    125  CD1        4.8840  -13.5320  -24.6900 C.ar  103  PHE103     -0.0042
    126  CD2        3.0070  -12.6510  -25.8870 C.ar  103  PHE103     -0.0042
    127  CE1        4.1530  -13.5070  -23.5110 C.ar  103  PHE103     -0.0003
    128  CE2        2.2640  -12.6220  -24.7080 C.ar  103  PHE103     -0.0003
    129  CZ         2.8400  -13.0490  -23.5190 C.ar  103  PHE103     -0.0000
@<TRIPOS>BOND
     1     6     5    1
     2    14    13    2
     3     5     2    1
     4    13    15   am
     5    13    12    1
     6     1     2    1
     7    11    12    1
     8    11     8    1
     9     2     3    1
    10     7     8    1
    11     7     3   am
    12     8     9    1
    13     3     4    2
    14    24    22   ar
    15    24    25   ar
    16    22    21   ar
    17    25    23   ar
    18     9    16   am
    19     9    10    2
    20    16    17    1
    21    21    23   ar
    22    21    20    1
    23    20    17    1
    24    17    18    1
    25    30    31    1
    26    30    27    1
    27    26    18   am
    28    26    27    1
    29   109   107    1
    30    18    19    2
    31   122   121    2
    32    27    28    1
    33   108   106    1
    34    93    92   ar
    35    50    49    1
    36   121   120    1
    37   107   106    1
    38    81    80    1
    39   106   103    1
    40   119   120    1
    41    28    32   am
    42    28    29    2
    43    49    47   ar
    44    49    48   ar
    45    47    45   ar
    46    48    46   ar
    47    92    91    1
    48    92    94   ar
    49   120   123    1
    50    32    33    1
    51    91    88    1
    52    45    44   ar
    53    46    44   ar
    54    79    78    2
    55   112   113    2
    56   112   111    1
    57   105   104    2
    58    80    82    1
    59    80    77    1
    60    44    43    1
    61   103   104    1
    62   103   102    1
    63    90    89    2
    64    38    36    1
    65   104   110   am
    66   123   124    1
    67    76    77    1
    68    43    40    1
    69    37    36    1
    70    78    77    1
    71    78    83   am
    72   102    97   am
    73    33    36    1
    74    33    34    1
    75    88    87    1
    76    88    89    1
    77   110   111    1
    78    39    34   am
    79    39    40    1
    80    87    85   am
    81    89    95   am
    82   111   114    1
    83    85    84    1
    84    85    86    2
    85   114   115    1
    86    34    35    2
    87    84    83    1
    88    40    41    1
    89   124   126   ar
    90   124   125   ar
    91   126   128   ar
    92   115   116    1
    93    97    96    1
    94    97    98    2
    95    95    96    1
    96    42    41    2
    97   116   117    1
    98    96    99    1
    99    41    51   am
   100   128   129   ar
   101   125   127   ar
   102   117   118    1
   103    51    52    1
   104    54    53    2
   105    61    60    2
   106   129   127   ar
   107    99   101    1
   108    99   100    1
   109    53    52    1
   110    58    59    1
   111    52    55    1
   112    65    64   ar
   113    60    59    1
   114    59    62    1
   115    62    63    1
   116    64    66   ar
   117    64    63    1
   118    55    56    1
   119    55    57    1
   120    69    68    1
   121    69    70    2
   122    68    67    1
   123    68    71    1
   124    72    71    1
   125    72    73    1
   126    74    73   ar
   127    73    75   ar
