@<TRIPOS>MOLECULE
tmp/2otvA00.pdb
 131 132 0 0 0
SMALL
GASTEIGER

@<TRIPOS>ATOM
      1  N          7.2610  -12.3820   -8.6580 N.3    40  HIS40      -0.1241
      2  CA         6.3490  -11.2320   -8.6650 C.3    40  HIS40       0.1621
      3  C          5.2520  -11.3580   -7.6180 C.2    40  HIS40       0.2264
      4  O          4.5170  -10.4030   -7.3750 O.2    40  HIS40      -0.2867
      5  CB         5.8110  -10.9410  -10.0810 C.3    40  HIS40       0.0745
      6  CG         4.6070  -11.7340  -10.4840 C.ar   40  HIS40       0.0817
      7  ND1        4.6890  -12.8280  -11.3160 N.ar   40  HIS40      -0.2268
      8  CD2        3.2910  -11.5570  -10.2170 C.ar   40  HIS40       0.1154
      9  CE1        3.4740  -13.3010  -11.5410 C.ar   40  HIS40       0.1986
     10  NE2        2.6020  -12.5370  -10.8940 N.ar   40  HIS40      -0.2212
     11  N         -6.8680  -20.8300  -20.4850 N.3   171  ASP171     -0.1225
     12  CA        -5.6060  -20.2210  -20.0860 C.3   171  ASP171      0.1805
     13  C         -5.5680  -20.1190  -18.5690 C.2   171  ASP171      0.2598
     14  O         -6.5370  -20.3950  -17.8960 O.2   171  ASP171     -0.2718
     15  CB        -5.5950  -18.7940  -20.6750 C.3   171  ASP171      0.1424
     16  CG        -4.2330  -18.1300  -20.7100 C.2   171  ASP171      0.3668
     17  OD1       -4.1910  -16.8850  -20.8650 O.co2 171  ASP171     -0.2456
     18  OD2       -3.1850  -18.7860  -20.5730 O.co2 171  ASP171     -0.2456
     19  N         -4.4300  -19.7710  -18.0090 N.am  172  SER172     -0.1938
     20  CA        -4.3910  -19.4070  -16.5920 C.3   172  SER172      0.2055
     21  C         -4.6880  -17.9040  -16.5680 C.2   172  SER172      0.2643
     22  O         -4.8300  -17.2700  -17.6260 O.2   172  SER172     -0.2714
     23  CB        -3.0480  -19.7640  -15.9360 C.3   172  SER172      0.2130
     24  OG        -1.9670  -19.2460  -16.6920 O.3   172  SER172     -0.2179
     25  N         -4.8010  -17.3240  -15.3800 N.am  173  CYS173     -0.1953
     26  CA        -5.1840  -15.9130  -15.2640 C.3   173  CYS173      0.1843
     27  C         -4.7980  -15.3090  -13.9150 C.2   173  CYS173      0.2625
     28  O         -4.2630  -15.9730  -13.0520 O.2   173  CYS173     -0.2714
     29  CB        -6.6960  -15.8260  -15.4610 C.3   173  CYS173      0.0997
     30  SG        -7.3380  -14.2070  -15.9660 S.3   173  CYS173     -0.0797
     31  N         -5.0730  -14.0220  -13.7340 N.am  174  GLN174     -0.1977
     32  CA        -4.7860  -13.3450  -12.4590 C.3   174  GLN174      0.1601
     33  C         -5.2130  -14.1890  -11.2540 C.2   174  GLN174      0.2287
     34  O         -6.3280  -14.6800  -11.2040 O.2   174  GLN174     -0.2864
     35  CB        -5.5220  -12.0040  -12.3950 C.3   174  GLN174      0.0394
     36  CG        -5.0030  -11.0460  -11.3200 C.3   174  GLN174      0.0908
     37  CD        -5.9510  -10.9480  -10.1080 C.2   174  GLN174      0.2608
     38  OE1       -6.0940  -11.8960   -9.3670 O.2   174  GLN174     -0.2717
     39  NE2       -6.5880   -9.8020   -9.8970 N.am  174  GLN174     -0.0878
     40  N         -1.0980  -16.9130  -10.5780 N.3   177  SER177     -0.1217
     41  CA         0.3510  -16.6800  -10.5750 C.3   177  SER177      0.1889
     42  C          1.0680  -17.4000   -9.4550 C.2   177  SER177      0.2288
     43  O          0.5790  -17.4480   -8.3330 O.2   177  SER177     -0.2866
     44  CB         0.6410  -15.1850  -10.4710 C.3   177  SER177      0.2089
     45  OG         0.2400  -14.5720  -11.6630 O.3   177  SER177     -0.2183
     46  N          3.3060  -20.3830  -13.1310 N.3   191  VAL191     -0.1231
     47  CA         2.4200  -19.3860  -13.7650 C.3   191  VAL191      0.1692
     48  C          3.0250  -17.9970  -13.5840 C.2   191  VAL191      0.2593
     49  O          3.2240  -17.5350  -12.4650 O.2   191  VAL191     -0.2718
     50  CB         1.0200  -19.4260  -13.1720 C.3   191  VAL191      0.0266
     51  CG1        0.1070  -18.3930  -13.8720 C.3   191  VAL191      0.0020
     52  CG2        0.4290  -20.8630  -13.2550 C.3   191  VAL191      0.0020
     53  N          3.3350  -17.3360  -14.7010 N.am  192  SER192     -0.1938
     54  CA         4.0460  -16.0450  -14.6200 C.3   192  SER192      0.2055
     55  C          3.2900  -14.8460  -15.1930 C.2   192  SER192      0.2643
     56  O          2.9440  -13.9260  -14.4460 O.2   192  SER192     -0.2714
     57  CB         5.4240  -16.1940  -15.2980 C.3   192  SER192      0.2130
     58  OG         6.2080  -14.9990  -15.1930 O.3   192  SER192     -0.2179
     59  N          3.0160  -14.8460  -16.4900 N.am  193  TRP193     -0.1959
     60  CA         2.3430  -13.7070  -17.1150 C.3   193  TRP193      0.1771
     61  C          1.6290  -14.0470  -18.4240 C.2   193  TRP193      0.2620
     62  O          1.6770  -15.1390  -18.9120 O.2   193  TRP193     -0.2715
     63  CB         3.3160  -12.5360  -17.3120 C.3   193  TRP193      0.0590
     64  CG         4.4730  -12.7880  -18.2680 C.ar  193  TRP193      0.0006
     65  CD1        5.6480  -13.4540  -17.9990 C.ar  193  TRP193      0.0946
     66  CD2        4.5640  -12.3620  -19.6390 C.ar  193  TRP193      0.0152
     67  NE1        6.4620  -13.4350  -19.1090 N.ar  193  TRP193     -0.2442
     68  CE2        5.8170  -12.7880  -20.1330 C.ar  193  TRP193      0.0810
     69  CE3        3.7100  -11.6610  -20.4940 C.ar  193  TRP193      0.0012
     70  CZ2        6.2300  -12.5430  -21.4440 C.ar  193  TRP193      0.0191
     71  CZ3        4.1200  -11.4140  -21.7860 C.ar  193  TRP193      0.0001
     72  CH2        5.3680  -11.8440  -22.2490 C.ar  193  TRP193      0.0015
     73  N          0.9810  -13.0170  -18.9920 N.am  194  GLY194     -0.1940
     74  CA         0.1250  -13.2240  -20.1570 C.3   194  GLY194      0.2014
     75  C         -0.7250  -12.0010  -20.4310 C.2   194  GLY194      0.2640
     76  O         -1.2200  -11.3330  -19.5050 O.2   194  GLY194     -0.2714
     77  N         -0.9010  -11.7090  -21.7140 N.am  195  SER195     -0.1935
     78  CA        -1.6460  -10.5270  -22.1300 C.3   195  SER195      0.2055
     79  C         -3.1430  -10.7710  -22.0600 C.2   195  SER195      0.2644
     80  O         -3.6950  -11.5120  -22.8480 O.2   195  SER195     -0.2714
     81  CB        -1.2450  -10.1220  -23.5490 C.3   195  SER195      0.2130
     82  OG        -1.7910   -8.8540  -23.8490 O.3   195  SER195     -0.2179
     83  N         -3.7860  -10.1380  -21.0350 N.am  196  GLY196     -0.1939
     84  CA        -5.0970  -10.5870  -20.5960 C.3   196  GLY196      0.2014
     85  C         -5.0870  -12.0660  -20.2540 C.2   196  GLY196      0.2639
     86  O         -4.0550  -12.5860  -19.8390 O.2   196  GLY196     -0.2714
     87  N         -6.2440  -12.7070  -20.4110 N.am  197  CYS197     -0.1967
     88  CA        -6.3530  -14.1430  -20.2040 C.3   197  CYS197      0.1712
     89  C         -7.1650  -14.7290  -21.3350 C.2   197  CYS197      0.2296
     90  O         -8.2670  -14.2430  -21.6320 O.2   197  CYS197     -0.2864
     91  CB        -7.0570  -14.4390  -18.8940 C.3   197  CYS197      0.0983
     92  SG        -6.2850  -13.6120  -17.4980 S.3   197  CYS197     -0.0798
     93  N         -2.5180  -15.1490  -27.7180 N.3   202  LYS202     -0.1231
     94  CA        -1.8130  -14.6530  -26.5320 C.3   202  LYS202      0.1678
     95  C         -1.8550  -15.7210  -25.4440 C.2   202  LYS202      0.2434
     96  O         -2.5980  -15.6140  -24.4910 O.2   202  LYS202     -0.2733
     97  CB        -2.4420  -13.3530  -26.0220 C.3   202  LYS202      0.0284
     98  CG        -2.2720  -12.1660  -26.9840 C.3   202  LYS202      0.0035
     99  CD        -0.8080  -11.7340  -27.0760 C.3   202  LYS202      0.0206
    100  CE        -0.6110  -10.6800  -28.1490 C.3   202  LYS202      0.1093
    101  NZ         0.7960  -10.1840  -28.1860 N.3   202  LYS202     -0.1314
    102  N         -1.0610  -16.7660  -25.6150 N.am  203  PRO203     -0.2718
    103  CA        -1.0580  -17.8670  -24.6480 C.3   203  PRO203      0.1535
    104  C         -0.3780  -17.4550  -23.3540 C.2   203  PRO203      0.2599
    105  O          0.2160  -16.3910  -23.2880 O.2   203  PRO203     -0.2715
    106  CB        -0.2490  -18.9560  -25.3510 C.3   203  PRO203      0.0310
    107  CG         0.6220  -18.2160  -26.2990 C.3   203  PRO203      0.0237
    108  CD        -0.1070  -16.9750  -26.7120 C.3   203  PRO203      0.0939
    109  N         -0.4980  -18.2900  -22.3350 N.am  204  GLY204     -0.1941
    110  CA         0.1730  -18.0390  -21.0780 C.3   204  GLY204      0.2014
    111  C          1.6790  -18.2260  -21.1840 C.2   204  GLY204      0.2639
    112  O          2.1700  -19.0570  -21.9530 O.2   204  GLY204     -0.2714
    113  N          2.4200  -17.4470  -20.3980 N.am  205  VAL205     -0.1963
    114  CA         3.8720  -17.5310  -20.3310 C.3   205  VAL205      0.1727
    115  C          4.2830  -18.0020  -18.9390 C.2   205  VAL205      0.2616
    116  O          3.7820  -17.5320  -17.9270 O.2   205  VAL205     -0.2715
    117  CB         4.5350  -16.1790  -20.6840 C.3   205  VAL205      0.0290
    118  CG1        6.0820  -16.3500  -20.7920 C.3   205  VAL205      0.0023
    119  CG2        3.9640  -15.6690  -21.9810 C.3   205  VAL205      0.0023
    120  N          5.1400  -19.0170  -18.9190 N.am  206  TYR206     -0.1974
    121  CA         5.5380  -19.6780  -17.6940 C.3   206  TYR206      0.1639
    122  C          7.0400  -19.6750  -17.4560 C.2   206  TYR206      0.2290
    123  O          7.8220  -19.7340  -18.4020 O.2   206  TYR206     -0.2864
    124  CB         5.0160  -21.1420  -17.7520 C.3   206  TYR206      0.0560
    125  CG         3.5190  -21.1400  -17.9430 C.ar  206  TYR206     -0.0198
    126  CD1        2.6840  -21.1720  -16.8390 C.ar  206  TYR206     -0.0009
    127  CD2        2.9410  -21.1110  -19.2100 C.ar  206  TYR206     -0.0009
    128  CE1        1.3090  -21.1660  -16.9650 C.ar  206  TYR206      0.0417
    129  CE2        1.5430  -21.0960  -19.3490 C.ar  206  TYR206      0.0417
    130  CZ         0.7440  -21.1340  -18.2210 C.ar  206  TYR206      0.1957
    131  OH        -0.6260  -21.0950  -18.3540 O.3   206  TYR206     -0.2866
@<TRIPOS>BOND
     1   101   100    1
     2   100    99    1
     3    93    94    1
     4    99    98    1
     5    98    97    1
     6   108   107    1
     7   108   102    1
     8    94    97    1
     9    94    95    1
    10   107   106    1
    11   102    95   am
    12   102   103    1
    13    95    96    2
    14   106   103    1
    15   103   104    1
    16    82    81    1
    17    81    78    1
    18   104   105    2
    19   104   109   am
    20    80    79    2
    21   109   110    1
    22    72    71   ar
    23    72    70   ar
    24    78    79    1
    25    78    77    1
    26    79    83   am
    27   119   117    1
    28   112   111    2
    29    71    69   ar
    30    77    75   am
    31    90    89    2
    32    70    68   ar
    33    89    88    1
    34   111   110    1
    35   111   113   am
    36    83    84    1
    37    17    16   ar
    38   118   117    1
    39    16    15    1
    40    16    18   ar
    41   117   114    1
    42    15    12    1
    43    84    85    1
    44    69    66   ar
    45    11    12    1
    46    75    74    1
    47    75    76    2
    48    87    85   am
    49    87    88    1
    50   113   114    1
    51   114   115    1
    52    85    86    2
    53    88    91    1
    54    74    73    1
    55    68    66   ar
    56    68    67   ar
    57    12    13    1
    58    66    64   ar
    59   129   127   ar
    60   129   130   ar
    61   127   125   ar
    62    67    65   ar
    63    73    61   am
    64   115   120   am
    65   115   116    2
    66   120   121    1
    67    62    61    2
    68    91    92    1
    69    13    19   am
    70    13    14    2
    71    61    60    1
    72   123   122    2
    73   131   130    1
    74    64    65   ar
    75    64    63    1
    76   130   128   ar
    77    19    20    1
    78   125   124    1
    79   125   126   ar
    80   124   121    1
    81   121   122    1
    82    22    21    2
    83    92    30    1
    84    63    60    1
    85    60    59    1
    86   128   126   ar
    87    24    23    1
    88    20    21    1
    89    20    23    1
    90    21    25   am
    91    59    55   am
    92    30    29    1
    93    29    26    1
    94    25    26    1
    95    57    58    1
    96    57    54    1
    97    26    27    1
    98    55    54    1
    99    55    56    2
   100    53    54    1
   101    53    48   am
   102    27    31   am
   103    27    28    2
   104    51    50    1
   105    47    48    1
   106    47    50    1
   107    47    46    1
   108    31    32    1
   109    48    49    2
   110    52    50    1
   111    32    35    1
   112    32    33    1
   113    35    36    1
   114    45    44    1
   115     9     7   ar
   116     9    10   ar
   117    36    37    1
   118     7     6   ar
   119    33    34    2
   120    10     8   ar
   121    40    41    1
   122    41    44    1
   123    41    42    1
   124     6     8   ar
   125     6     5    1
   126    37    39   am
   127    37    38    2
   128     5     2    1
   129    42    43    2
   130     2     1    1
   131     2     3    1
   132     3     4    2
