@<TRIPOS>MOLECULE
tmp/2otyA00.pdb
 105 96 0 0 0
SMALL
GASTEIGER

@<TRIPOS>ATOM
      1  N        -24.3800   27.8640  -12.2060 N.3    78  ILE78      -0.1245
      2  CA       -23.9690   28.4590  -10.9320 C.3    78  ILE78       0.1561
      3  C        -23.7640   29.9780  -11.0770 C.2    78  ILE78       0.2260
      4  O        -24.3180   30.7660  -10.3040 O.2    78  ILE78      -0.2867
      5  CB       -22.6920   27.7700  -10.3680 C.3    78  ILE78       0.0252
      6  CG1      -23.0420   26.3660   -9.8430 C.3    78  ILE78       0.0019
      7  CG2      -22.0590   28.6100   -9.2550 C.3    78  ILE78       0.0019
      8  CD1      -21.8330   25.4630   -9.5310 C.3    78  ILE78       0.0001
      9  N        -26.3310   31.4890   -5.8730 N.3    84  LEU84      -0.1245
     10  CA       -25.1620   30.6120   -5.8680 C.3    84  LEU84       0.1561
     11  C        -23.8660   31.3440   -6.2110 C.2    84  LEU84       0.2260
     12  O        -22.8170   31.0590   -5.6270 O.2    84  LEU84      -0.2867
     13  CB       -25.3660   29.4220   -6.8150 C.3    84  LEU84       0.0270
     14  CG       -26.6220   28.5720   -6.5850 C.3    84  LEU84       0.0019
     15  CD1      -26.6920   27.4280   -7.5830 C.3    84  LEU84       0.0001
     16  CD2      -26.6680   28.0450   -5.1590 C.3    84  LEU84       0.0001
     17  N        -21.4450   32.8950   -3.4020 N.3    87  VAL87      -0.1231
     18  CA       -20.8100   31.8670   -2.5850 C.3    87  VAL87       0.1692
     19  C        -19.7020   31.1890   -3.3910 C.2    87  VAL87       0.2592
     20  O        -18.5760   31.0510   -2.9240 O.2    87  VAL87      -0.2718
     21  CB       -21.8210   30.8300   -2.0360 C.3    87  VAL87       0.0266
     22  CG1      -21.1450   29.9400   -0.9990 C.3    87  VAL87       0.0020
     23  CG2      -23.0270   31.5400   -1.4140 C.3    87  VAL87       0.0020
     24  N        -20.0290   30.7950   -4.6180 N.am   88  TYR88      -0.1976
     25  CA       -19.0660   30.1420   -5.4930 C.3    88  TYR88       0.1639
     26  C        -17.8130   31.0090   -5.6810 C.2    88  TYR88       0.2290
     27  O        -16.6760   30.5410   -5.5230 O.2    88  TYR88      -0.2864
     28  CB       -19.7240   29.8510   -6.8410 C.3    88  TYR88       0.0560
     29  CG       -18.8120   29.1590   -7.8220 C.ar   88  TYR88      -0.0198
     30  CD1      -18.6780   27.7700   -7.8160 C.ar   88  TYR88      -0.0009
     31  CD2      -18.0860   29.8910   -8.7630 C.ar   88  TYR88      -0.0009
     32  CE1      -17.8400   27.1300   -8.7230 C.ar   88  TYR88       0.0417
     33  CE2      -17.2410   29.2600   -9.6660 C.ar   88  TYR88       0.0417
     34  CZ       -17.1250   27.8830   -9.6410 C.ar   88  TYR88       0.1957
     35  OH       -16.2860   27.2520  -10.5390 O.3    88  TYR88      -0.2866
     36  N        -15.2010   31.1480   -2.9280 N.3    91  LEU91      -0.1245
     37  CA       -14.4480   29.9210   -2.6660 C.3    91  LEU91       0.1561
     38  C        -13.1360   29.8530   -3.4350 C.2    91  LEU91       0.2260
     39  O        -13.0100   30.4490   -4.5010 O.2    91  LEU91      -0.2867
     40  CB       -15.2930   28.6900   -3.0260 C.3    91  LEU91       0.0270
     41  CG       -16.5990   28.4700   -2.2510 C.3    91  LEU91       0.0019
     42  CD1      -17.3670   27.3090   -2.8590 C.3    91  LEU91       0.0001
     43  CD2      -16.3170   28.2170   -0.7760 C.3    91  LEU91       0.0001
     44  N        -18.5300   22.3950   -5.0150 N.3    99  ALA99      -0.1245
     45  CA       -19.7720   23.0820   -5.3660 C.3    99  ALA99       0.1562
     46  C        -20.3540   22.5620   -6.6860 C.2    99  ALA99       0.2260
     47  O        -21.5550   22.2880   -6.7850 O.2    99  ALA99      -0.2867
     48  CB       -19.5420   24.5960   -5.4450 C.3    99  ALA99       0.0290
     49  N        -21.8460   18.9910   -6.3200 N.3   102  MET102     -0.1230
     50  CA       -23.1950   19.0140   -5.7520 C.3   102  MET102      0.1702
     51  C        -24.2830   19.3940   -6.7620 C.2   102  MET102      0.2592
     52  O        -25.3350   18.7520   -6.8130 O.2   102  MET102     -0.2718
     53  CB       -23.2490   19.9490   -4.5520 C.3   102  MET102      0.0401
     54  CG       -22.5850   19.3920   -3.3140 C.3   102  MET102      0.0596
     55  SD       -23.0440   20.2830   -1.8180 S.3   102  MET102     -0.1393
     56  CE       -24.6610   19.6160   -1.4510 C.3   102  MET102      0.0692
     57  N        -24.0330   20.4410   -7.5440 N.am  103  VAL103     -0.1980
     58  CA       -24.9840   20.8990   -8.5660 C.3   103  VAL103      0.1595
     59  C        -25.1640   19.8440   -9.6660 C.2   103  VAL103      0.2287
     60  O        -26.2880   19.5930  -10.1250 O.2   103  VAL103     -0.2864
     61  CB       -24.5720   22.2710   -9.1650 C.3   103  VAL103      0.0276
     62  CG1      -25.3860   22.5960  -10.4130 C.3   103  VAL103      0.0022
     63  CG2      -24.7390   23.3880   -8.1190 C.3   103  VAL103      0.0022
     64  N        -30.0170   22.0590   -4.8010 N.3   111  VAL111     -0.1245
     65  CA       -29.1230   22.9100   -4.0160 C.3   111  VAL111      0.1561
     66  C        -29.8970   24.0330   -3.2910 C.2   111  VAL111      0.2260
     67  O        -29.4010   24.6040   -2.3210 O.2   111  VAL111     -0.2867
     68  CB       -27.9620   23.4630   -4.9050 C.3   111  VAL111      0.0252
     69  CG1      -27.1650   24.5510   -4.1910 C.3   111  VAL111      0.0019
     70  CG2      -27.0310   22.3240   -5.3250 C.3   111  VAL111      0.0019
     71  N        -24.6610   27.0450    2.5350 N.3   118  LEU118     -0.1245
     72  CA       -23.9870   28.0040    1.6520 C.3   118  LEU118      0.1561
     73  C        -23.5410   29.2550    2.3970 C.2   118  LEU118      0.2260
     74  O        -22.4530   29.7710    2.1410 O.2   118  LEU118     -0.2867
     75  CB       -24.8780   28.3660    0.4560 C.3   118  LEU118      0.0270
     76  CG       -24.7190   27.4960   -0.8060 C.3   118  LEU118      0.0019
     77  CD1      -25.0260   26.0280   -0.5700 C.3   118  LEU118      0.0001
     78  CD2      -25.5930   28.0510   -1.9330 C.3   118  LEU118      0.0001
     79  N        -20.5120   28.3500    4.3170 N.3   121  LEU121     -0.1245
     80  CA       -19.4130   28.2820    3.3460 C.3   121  LEU121      0.1561
     81  C        -18.8710   29.6700    2.9760 C.2   121  LEU121      0.2260
     82  O        -17.6510   29.8700    2.9380 O.2   121  LEU121     -0.2867
     83  CB       -19.8360   27.5090    2.0930 C.3   121  LEU121      0.0270
     84  CG       -20.0540   25.9970    2.2350 C.3   121  LEU121      0.0019
     85  CD1      -20.5640   25.4170    0.9180 C.3   121  LEU121      0.0001
     86  CD2      -18.7880   25.2510    2.6990 C.3   121  LEU121      0.0001
     87  N        -24.0580   20.4810    6.2310 N.3   133  LEU133     -0.1245
     88  CA       -24.2240   19.7820    4.9440 C.3   133  LEU133      0.1561
     89  C        -24.7420   18.3510    5.1000 C.2   133  LEU133      0.2260
     90  O        -25.4830   17.8580    4.2420 O.2   133  LEU133     -0.2867
     91  CB       -22.9090   19.7830    4.1430 C.3   133  LEU133      0.0270
     92  CG       -22.5140   21.0920    3.4290 C.3   133  LEU133      0.0019
     93  CD1      -21.0370   21.0930    3.0420 C.3   133  LEU133      0.0001
     94  CD2      -23.3900   21.3560    2.1970 C.3   133  LEU133      0.0001
     95  N        -15.0950   20.3000    1.0530 N.3   153  PHE153     -0.1241
     96  CA       -15.5200   21.5980    1.6090 C.3   153  PHE153      0.1605
     97  C        -14.8580   21.9190    2.9530 C.2   153  PHE153      0.2264
     98  O        -14.5060   23.0800    3.2160 O.2   153  PHE153     -0.2867
     99  CB       -17.0390   21.6540    1.8020 C.3   153  PHE153      0.0534
    100  CG       -17.8190   21.9990    0.5570 C.ar  153  PHE153     -0.0203
    101  CD1      -17.5630   23.1800   -0.1500 C.ar  153  PHE153     -0.0042
    102  CD2      -18.8490   21.1610    0.1210 C.ar  153  PHE153     -0.0042
    103  CE1      -18.3010   23.5090   -1.2900 C.ar  153  PHE153     -0.0003
    104  CE2      -19.5990   21.4790   -1.0190 C.ar  153  PHE153     -0.0003
    105  CZ       -19.3190   22.6650   -1.7250 C.ar  153  PHE153     -0.0000
@<TRIPOS>BOND
     1     1     2    1
     2     3     2    1
     3     3     4    2
     4     2     5    1
     5    35    34    1
     6    62    61    1
     7     5     6    1
     8     5     7    1
     9    60    59    2
    10     6     8    1
    11    33    34   ar
    12    33    31   ar
    13    59    58    1
    14    34    32   ar
    15    61    58    1
    16    61    63    1
    17    31    29   ar
    18    32    30   ar
    19    58    57    1
    20    29    30   ar
    21    29    28    1
    22    15    14    1
    23    57    51   am
    24    28    25    1
    25    13    14    1
    26    13    10    1
    27    52    51    2
    28    47    46    2
    29    51    50    1
    30    46    45    1
    31    14    16    1
    32    49    50    1
    33    11    10    1
    34    11    12    2
    35     9    10    1
    36    50    53    1
    37    26    27    2
    38    26    25    1
    39    25    24    1
    40    48    45    1
    41    45    44    1
    42    70    68    1
    43    68    69    1
    44    68    65    1
    45    64    65    1
    46    24    19   am
    47    53    54    1
    48    39    38    2
    49    65    66    1
    50    38    37    1
    51    17    18    1
    52    19    20    2
    53    19    18    1
    54    54    55    1
    55    66    67    2
    56    40    37    1
    57    40    41    1
    58    36    37    1
    59    42    41    1
    60    18    21    1
    61    41    43    1
    62    21    23    1
    63    21    22    1
    64    78    76    1
    65    55    56    1
    66   105   103   ar
    67   105   104   ar
    68   103   101   ar
    69   104   102   ar
    70    76    77    1
    71    76    75    1
    72   101   100   ar
    73   102   100   ar
    74    75    72    1
    75   100    99    1
    76    85    84    1
    77    95    96    1
    78    96    99    1
    79    96    97    1
    80    72    73    1
    81    72    71    1
    82    83    84    1
    83    83    80    1
    84    74    73    2
    85    94    92    1
    86    84    86    1
    87    82    81    2
    88    97    98    2
    89    81    80    1
    90    93    92    1
    91    80    79    1
    92    92    91    1
    93    91    88    1
    94    90    89    2
    95    88    89    1
    96    88    87    1
