@<TRIPOS>MOLECULE
tmp/2otzA00.pdb
 116 107 0 0 0
SMALL
GASTEIGER

@<TRIPOS>ATOM
      1  N         35.7370  -27.4950   -3.8400 N.3    78  ILE78      -0.1245
      2  CA        36.1360  -28.1160   -5.1060 C.3    78  ILE78       0.1561
      3  C         36.3320  -29.6320   -4.9530 C.2    78  ILE78       0.2260
      4  O         35.8010  -30.4140   -5.7450 O.2    78  ILE78      -0.2867
      5  CB        37.4230  -27.4600   -5.6900 C.3    78  ILE78       0.0252
      6  CG1       37.1380  -26.0170   -6.1360 C.3    78  ILE78       0.0019
      7  CG2       37.9680  -28.2780   -6.8570 C.3    78  ILE78       0.0019
      8  CD1       38.3830  -25.1470   -6.3160 C.3    78  ILE78       0.0001
      9  N         33.8260  -30.9660  -10.2070 N.3    84  LEU84      -0.1245
     10  CA        35.0090  -30.1080  -10.1890 C.3    84  LEU84       0.1561
     11  C         36.2870  -30.8450   -9.7920 C.2    84  LEU84       0.2260
     12  O         37.3520  -30.5730  -10.3410 O.2    84  LEU84      -0.2867
     13  CB        34.7880  -28.8890   -9.2810 C.3    84  LEU84       0.0270
     14  CG        33.6030  -27.9640   -9.5900 C.3    84  LEU84       0.0019
     15  CD1       33.6110  -26.7620   -8.6540 C.3    84  LEU84       0.0001
     16  CD2       33.5830  -27.5090  -11.0480 C.3    84  LEU84       0.0001
     17  N         38.5510  -32.5070  -12.6230 N.3    87  VAL87      -0.1231
     18  CA        39.1980  -31.4970  -13.4600 C.3    87  VAL87       0.1692
     19  C         40.3340  -30.8230  -12.6800 C.2    87  VAL87       0.2592
     20  O         41.4480  -30.6870  -13.1880 O.2    87  VAL87      -0.2718
     21  CB        38.1910  -30.4500  -14.0140 C.3    87  VAL87       0.0266
     22  CG1       38.9060  -29.4140  -14.8910 C.3    87  VAL87       0.0020
     23  CG2       37.0730  -31.1370  -14.7970 C.3    87  VAL87       0.0020
     24  N         40.0390  -30.4310  -11.4400 N.am   88  TYR88      -0.1976
     25  CA        41.0240  -29.8280  -10.5400 C.3    88  TYR88       0.1639
     26  C         42.2540  -30.7200  -10.3620 C.2    88  TYR88       0.2290
     27  O         43.3860  -30.2690  -10.5340 O.2    88  TYR88      -0.2864
     28  CB        40.3830  -29.5490   -9.1740 C.3    88  TYR88       0.0560
     29  CG        41.2970  -28.8540   -8.1910 C.ar   88  TYR88      -0.0198
     30  CD1       41.4250  -27.4630   -8.1940 C.ar   88  TYR88      -0.0009
     31  CD2       42.0340  -29.5850   -7.2590 C.ar   88  TYR88      -0.0009
     32  CE1       42.2640  -26.8210   -7.2960 C.ar   88  TYR88       0.0417
     33  CE2       42.8800  -28.9520   -6.3570 C.ar   88  TYR88       0.0417
     34  CZ        42.9880  -27.5680   -6.3810 C.ar   88  TYR88       0.1957
     35  OH        43.8210  -26.9300   -5.4950 O.3    88  TYR88      -0.2866
     36  N         44.7460  -30.8830  -13.1420 N.3    91  LEU91      -0.1245
     37  CA        45.4970  -29.6570  -13.4070 C.3    91  LEU91       0.1561
     38  C         46.8200  -29.6050  -12.6570 C.2    91  LEU91       0.2260
     39  O         47.0090  -30.2940  -11.6510 O.2    91  LEU91      -0.2867
     40  CB        44.6620  -28.4180  -13.0530 C.3    91  LEU91       0.0270
     41  CG        43.3970  -28.1260  -13.8670 C.3    91  LEU91       0.0019
     42  CD1       42.5680  -27.0390  -13.1810 C.3    91  LEU91       0.0001
     43  CD2       43.7280  -27.7510  -15.3120 C.3    91  LEU91       0.0001
     44  N         41.5130  -22.1680  -10.9930 N.3    99  ALA99      -0.1245
     45  CA        40.2930  -22.8810  -10.6120 C.3    99  ALA99       0.1562
     46  C         39.7210  -22.3720   -9.2870 C.2    99  ALA99       0.2260
     47  O         38.5140  -22.1050   -9.1880 O.2    99  ALA99      -0.2867
     48  CB        40.5550  -24.3870  -10.5420 C.3    99  ALA99       0.0290
     49  N         38.1910  -18.7740   -9.6850 N.3   102  MET102     -0.1230
     50  CA        36.8260  -18.8310  -10.2070 C.3   102  MET102      0.1702
     51  C         35.7760  -19.1760   -9.1430 C.2   102  MET102      0.2592
     52  O         34.7670  -18.4760   -9.0210 O.2   102  MET102     -0.2718
     53  CB        36.7300  -19.8170  -11.3680 C.3   102  MET102      0.0401
     54  CG        37.1740  -19.2500  -12.6940 C.3   102  MET102      0.0596
     55  SD        36.7750  -20.3620  -14.0470 S.3   102  MET102     -0.1393
     56  CE        35.0070  -20.1450  -14.2290 C.3   102  MET102      0.0692
     57  N         36.0180  -20.2540   -8.3940 N.am  103  VAL103     -0.1980
     58  CA        35.1080  -20.7040   -7.3300 C.3   103  VAL103      0.1595
     59  C         34.9430  -19.6350   -6.2490 C.2   103  VAL103      0.2287
     60  O         33.8290  -19.3860   -5.7800 O.2   103  VAL103     -0.2864
     61  CB        35.5630  -22.0610   -6.7100 C.3   103  VAL103      0.0276
     62  CG1       34.7480  -22.4020   -5.4600 C.3   103  VAL103      0.0022
     63  CG2       35.4280  -23.1790   -7.7380 C.3   103  VAL103      0.0022
     64  N         30.5250  -22.3800  -11.3210 N.3   111  VAL111     -0.1245
     65  CA        31.5900  -23.0130  -12.1060 C.3   111  VAL111      0.1561
     66  C         31.1420  -24.3400  -12.7280 C.2   111  VAL111      0.2260
     67  O         31.5210  -24.6580  -13.8610 O.2   111  VAL111     -0.2867
     68  CB        32.8740  -23.2470  -11.2680 C.3   111  VAL111      0.0252
     69  CG1       33.9900  -23.7870  -12.1470 C.3   111  VAL111      0.0019
     70  CG2       33.3240  -21.9630  -10.5890 C.3   111  VAL111      0.0019
     71  N         30.0740  -24.6500  -16.2260 N.3   114  PHE114     -0.1241
     72  CA        31.1010  -24.5060  -17.2570 C.3   114  PHE114      0.1605
     73  C         31.4990  -25.8950  -17.7580 C.2   114  PHE114      0.2264
     74  O         32.6800  -26.1800  -17.9800 O.2   114  PHE114     -0.2867
     75  CB        32.3210  -23.7560  -16.7060 C.3   114  PHE114      0.0534
     76  CG        32.1320  -22.2630  -16.6100 C.ar  114  PHE114     -0.0203
     77  CD1       31.3390  -21.7050  -15.6080 C.ar  114  PHE114     -0.0042
     78  CD2       32.7620  -21.4120  -17.5160 C.ar  114  PHE114     -0.0042
     79  CE1       31.1650  -20.3240  -15.5230 C.ar  114  PHE114     -0.0003
     80  CE2       32.5950  -20.0310  -17.4390 C.ar  114  PHE114     -0.0003
     81  CZ        31.7960  -19.4850  -16.4400 C.ar  114  PHE114     -0.0000
     82  N         35.1700  -27.1760  -18.5690 N.3   118  LEU118     -0.1245
     83  CA        35.7030  -28.2120  -17.6770 C.3   118  LEU118      0.1561
     84  C         36.2420  -29.4280  -18.4280 C.2   118  LEU118      0.2260
     85  O         37.3000  -29.9500  -18.0800 O.2   118  LEU118     -0.2867
     86  CB        34.6510  -28.6500  -16.6480 C.3   118  LEU118      0.0270
     87  CG        34.2280  -27.6310  -15.5840 C.3   118  LEU118      0.0019
     88  CD1       33.0020  -28.1180  -14.8190 C.3   118  LEU118      0.0001
     89  CD2       35.3670  -27.3130  -14.6290 C.3   118  LEU118      0.0001
     90  N         39.4010  -28.3240  -20.3540 N.3   121  LEU121     -0.1245
     91  CA        40.5020  -28.1980  -19.3960 C.3   121  LEU121      0.1561
     92  C         41.0700  -29.5540  -18.9900 C.2   121  LEU121      0.2260
     93  O         42.2840  -29.6960  -18.8600 O.2   121  LEU121     -0.2867
     94  CB        40.0840  -27.3940  -18.1560 C.3   121  LEU121      0.0270
     95  CG        39.9160  -25.8770  -18.3150 C.3   121  LEU121      0.0019
     96  CD1       39.1970  -25.3050  -17.1110 C.3   121  LEU121      0.0001
     97  CD2       41.2550  -25.1630  -18.5350 C.3   121  LEU121      0.0001
     98  N         35.7080  -20.3800  -22.1330 N.3   133  LEU133     -0.1245
     99  CA        35.5560  -19.6950  -20.8470 C.3   133  LEU133      0.1561
    100  C         35.0780  -18.2500  -21.0010 C.2   133  LEU133      0.2260
    101  O         34.3250  -17.7470  -20.1620 O.2   133  LEU133     -0.2867
    102  CB        36.8650  -19.7440  -20.0370 C.3   133  LEU133      0.0270
    103  CG        37.2170  -21.0300  -19.2680 C.3   133  LEU133      0.0019
    104  CD1       38.7170  -21.1090  -18.9830 C.3   133  LEU133      0.0001
    105  CD2       36.4140  -21.1600  -17.9770 C.3   133  LEU133      0.0001
    106  N         44.7770  -20.1400  -17.0710 N.3   153  PHE153     -0.1241
    107  CA        44.3010  -21.4310  -17.5900 C.3   153  PHE153      0.1605
    108  C         44.9300  -21.7960  -18.9340 C.2   153  PHE153      0.2264
    109  O         45.2830  -22.9510  -19.1570 O.2   153  PHE153     -0.2867
    110  CB        42.7740  -21.4510  -17.7490 C.3   153  PHE153      0.0534
    111  CG        42.0220  -21.8520  -16.5080 C.ar  153  PHE153     -0.0203
    112  CD1       42.3410  -23.0280  -15.8200 C.ar  153  PHE153     -0.0042
    113  CD2       40.9620  -21.0710  -16.0440 C.ar  153  PHE153     -0.0042
    114  CE1       41.6360  -23.4010  -14.6790 C.ar  153  PHE153     -0.0003
    115  CE2       40.2460  -21.4410  -14.9020 C.ar  153  PHE153     -0.0003
    116  CZ        40.5880  -22.6090  -14.2210 C.ar  153  PHE153     -0.0000
@<TRIPOS>BOND
     1    98    99    1
     2   100    99    1
     3   100   101    2
     4    99   102    1
     5    90    91    1
     6   102   103    1
     7    91    92    1
     8    91    94    1
     9   103   104    1
    10   103   105    1
    11   109   108    2
    12    92    93    2
    13   108   107    1
    14    82    83    1
    15    97    95    1
    16    84    85    2
    17    84    83    1
    18    95    94    1
    19    95    96    1
    20    74    73    2
    21    73    72    1
    22   110   107    1
    23   110   111    1
    24    83    86    1
    25   107   106    1
    26    78    80   ar
    27    78    76   ar
    28    80    81   ar
    29    72    75    1
    30    72    71    1
    31    75    76    1
    32    86    87    1
    33    76    77   ar
    34   111   113   ar
    35   111   112   ar
    36    81    79   ar
    37   113   115   ar
    38   112   114   ar
    39    77    79   ar
    40    87    88    1
    41    87    89    1
    42    43    41    1
    43   115   116   ar
    44    22    21    1
    45    23    21    1
    46   114   116   ar
    47    56    55    1
    48    55    54    1
    49    21    18    1
    50    41    42    1
    51    41    40    1
    52    67    66    2
    53    18    19    1
    54    18    17    1
    55    37    36    1
    56    37    40    1
    57    37    38    1
    58    20    19    2
    59    66    65    1
    60    54    53    1
    61    19    24   am
    62    38    39    2
    63    69    68    1
    64    65    64    1
    65    65    68    1
    66    24    25    1
    67    53    50    1
    68    68    70    1
    69    16    14    1
    70    44    45    1
    71    45    48    1
    72    45    46    1
    73    25    26    1
    74    25    28    1
    75    27    26    2
    76    12    11    2
    77     9    10    1
    78    50    49    1
    79    50    51    1
    80    10    11    1
    81    10    13    1
    82    14    13    1
    83    14    15    1
    84    46    47    2
    85    28    29    1
    86    51    52    2
    87    51    57   am
    88    57    58    1
    89    30    29   ar
    90    30    32   ar
    91    29    31   ar
    92    63    61    1
    93    58    61    1
    94    58    59    1
    95    32    34   ar
    96    31    33   ar
    97     7     5    1
    98    61    62    1
    99    34    33   ar
   100    34    35    1
   101     8     6    1
   102    59    60    2
   103     6     5    1
   104     4     3    2
   105     5     2    1
   106     2     3    1
   107     2     1    1
