@<TRIPOS>MOLECULE
tmp/2ou3A00.pdb
 106 102 0 0 0
SMALL
GASTEIGER

@<TRIPOS>ATOM
      1  N         24.9840   45.1460   23.7700 N.3    12  ILE12      -0.1245
      2  CA        25.0490   46.5770   23.4640 C.3    12  ILE12       0.1561
      3  C         25.9310   46.7890   22.2490 C.2    12  ILE12       0.2260
      4  O         25.5580   47.5090   21.3080 O.2    12  ILE12      -0.2867
      5  CB        25.5720   47.3770   24.6610 C.3    12  ILE12       0.0252
      6  CG1       24.4770   47.5210   25.6840 C.3    12  ILE12       0.0019
      7  CG2       26.0550   48.7420   24.1950 C.3    12  ILE12       0.0019
      8  CD1       23.2910   48.4570   25.2230 C.3    12  ILE12       0.0001
      9  N         24.2640   48.2640   18.7970 N.3    16  PHE16      -0.1241
     10  CA        24.5710   49.7000   18.6560 C.3    16  PHE16       0.1605
     11  C         26.0140   50.0280   18.2800 C.2    16  PHE16       0.2264
     12  O         26.2940   51.1840   17.9370 O.2    16  PHE16      -0.2867
     13  CB        24.1620   50.4600   19.9110 C.3    16  PHE16       0.0534
     14  CG        22.7440   50.1820   20.3290 C.ar   16  PHE16      -0.0203
     15  CD1       21.6920   50.6690   19.5850 C.ar   16  PHE16      -0.0042
     16  CD2       22.4780   49.3010   21.3780 C.ar   16  PHE16      -0.0042
     17  CE1       20.3860   50.3660   19.9230 C.ar   16  PHE16      -0.0003
     18  CE2       21.1630   49.0010   21.7600 C.ar   16  PHE16      -0.0003
     19  CZ        20.1220   49.5060   21.0110 C.ar   16  PHE16      -0.0000
     20  N         28.5490   50.0330   20.3120 N.3    18  PHE18      -0.1241
     21  CA        29.1560   50.7390   21.4180 C.3    18  PHE18       0.1605
     22  C         30.2030   49.8670   22.0810 C.2    18  PHE18       0.2264
     23  O         30.0540   48.6700   22.1360 O.2    18  PHE18      -0.2867
     24  CB        28.0820   51.0860   22.4670 C.3    18  PHE18       0.0534
     25  CG        27.0280   52.0870   22.0060 C.ar   18  PHE18      -0.0203
     26  CD1       27.1740   52.8530   20.8530 C.ar   18  PHE18      -0.0042
     27  CD2       25.8680   52.2650   22.7760 C.ar   18  PHE18      -0.0042
     28  CE1       26.1850   53.7760   20.4530 C.ar   18  PHE18      -0.0003
     29  CE2       24.9030   53.1980   22.4010 C.ar   18  PHE18      -0.0003
     30  CZ        25.0580   53.9530   21.2500 C.ar   18  PHE18      -0.0000
     31  N         25.9220   51.7360   28.1600 N.3    22  PRO22      -0.2116
     32  CA        25.3500   53.0150   28.6170 C.3    22  PRO22       0.1372
     33  C         24.8740   52.9450   30.0670 C.2    22  PRO22       0.2244
     34  O         24.4760   51.8640   30.5580 O.2    22  PRO22      -0.2868
     35  CB        24.1440   53.2340   27.6700 C.3    22  PRO22       0.0268
     36  CG        24.5150   52.4550   26.4430 C.3    22  PRO22       0.0207
     37  CD        25.1800   51.2140   26.9890 C.3    22  PRO22       0.0892
     38  N         20.8990   56.7900   30.8170 N.3    26  ASP26      -0.1225
     39  CA        20.9130   56.9330   29.3650 C.3    26  ASP26       0.1805
     40  C         20.0220   55.9220   28.6500 C.2    26  ASP26       0.2598
     41  O         19.3320   56.2820   27.6960 O.2    26  ASP26      -0.2718
     42  CB        22.3300   56.8760   28.7900 C.3    26  ASP26       0.1424
     43  CG        23.0500   58.2410   28.8080 C.2    26  ASP26       0.3668
     44  OD1       22.3970   59.2840   29.0950 O.co2  26  ASP26      -0.2456
     45  OD2       24.2750   58.2650   28.4840 O.co2  26  ASP26      -0.2456
     46  N         20.0150   54.6660   29.1070 N.am   27  SER27      -0.1952
     47  CA        19.1060   53.6810   28.5270 C.3    27  SER27       0.1924
     48  C         17.6720   54.1450   28.6950 C.2    27  SER27       0.2314
     49  O         16.8610   54.0570   27.7600 O.2    27  SER27      -0.2863
     50  CB        19.3010   52.2750   29.1490 C.3    27  SER27       0.2116
     51  OG        20.5630   51.7070   28.7810 O.3    27  SER27      -0.2180
     52  N         16.9940   57.2460   26.4090 N.3    30  TYR30      -0.1241
     53  CA        16.9450   56.7380   25.0420 C.3    30  TYR30       0.1605
     54  C         15.6050   56.0630   24.7480 C.2    30  TYR30       0.2264
     55  O         14.9490   56.3790   23.7390 O.2    30  TYR30      -0.2867
     56  CB        18.0740   55.7520   24.8110 C.3    30  TYR30       0.0534
     57  CG        18.0290   55.0140   23.4770 C.ar   30  TYR30      -0.0201
     58  CD1       18.5440   55.5880   22.3270 C.ar   30  TYR30      -0.0009
     59  CD2       17.4770   53.7380   23.3800 C.ar   30  TYR30      -0.0009
     60  CE1       18.5060   54.9200   21.1100 C.ar   30  TYR30       0.0417
     61  CE2       17.4360   53.0690   22.1800 C.ar   30  TYR30       0.0417
     62  CZ        17.9650   53.6380   21.0520 C.ar   30  TYR30       0.1957
     63  OH        17.9300   52.9350   19.8680 O.3    30  TYR30      -0.2866
     64  N         19.0530   44.3680   27.2550 N.3    58  TRP58      -0.1241
     65  CA        20.3970   44.9550   27.4580 C.3    58  TRP58       0.1605
     66  C         20.9020   44.7720   28.8830 C.2    58  TRP58       0.2264
     67  O         22.0360   45.1340   29.2000 O.2    58  TRP58      -0.2867
     68  CB        20.4670   46.4480   27.1650 C.3    58  TRP58       0.0550
     69  CG        19.7230   46.8520   25.9380 C.ar   58  TRP58       0.0003
     70  CD1       19.5310   46.1010   24.8270 C.ar   58  TRP58       0.0946
     71  CD2       19.0550   48.0960   25.7080 C.ar   58  TRP58       0.0152
     72  NE1       18.7760   46.7960   23.9140 N.ar   58  TRP58      -0.2442
     73  CE2       18.4870   48.0310   24.4260 C.ar   58  TRP58       0.0810
     74  CE3       18.9000   49.2760   26.4560 C.ar   58  TRP58       0.0012
     75  CZ2       17.7460   49.0840   23.8840 C.ar   58  TRP58       0.0191
     76  CZ3       18.1740   50.3040   25.9220 C.ar   58  TRP58       0.0001
     77  CH2       17.6000   50.2050   24.6470 C.ar   58  TRP58       0.0015
     78  N         24.5680   62.1350   25.3940 N.3    86  GLN86      -0.1231
     79  CA        24.7140   60.8920   24.6270 C.3    86  GLN86       0.1698
     80  C         23.4600   60.6260   23.8220 C.2    86  GLN86       0.2592
     81  O         23.5200   60.3610   22.6290 O.2    86  GLN86      -0.2718
     82  CB        24.9800   59.6890   25.5460 C.3    86  GLN86       0.0381
     83  CG        26.3660   59.6990   26.2380 C.3    86  GLN86       0.0905
     84  CD        26.4880   60.7610   27.3160 C.2    86  GLN86       0.2608
     85  OE1       25.7280   60.7640   28.3140 O.2    86  GLN86      -0.2717
     86  NE2       27.4500   61.6720   27.1430 N.am   86  GLN86      -0.0878
     87  N         22.2970   60.7530   24.4530 N.am   87  VAL87      -0.1980
     88  CA        21.0570   60.5770   23.6950 C.3    87  VAL87       0.1595
     89  C         20.9070   61.6690   22.6030 C.2    87  VAL87       0.2287
     90  O         20.3240   61.4510   21.5470 O.2    87  VAL87      -0.2864
     91  CB        19.8140   60.4690   24.6180 C.3    87  VAL87       0.0276
     92  CG1       18.5050   60.2540   23.7880 C.3    87  VAL87       0.0022
     93  CG2       20.0180   59.3180   25.5850 C.3    87  VAL87       0.0022
     94  N         21.9670   60.5530   19.2380 N.3    89  ALA89      -0.1245
     95  CA        21.3820   59.2590   18.9330 C.3    89  ALA89       0.1562
     96  C         20.1610   59.3660   18.0240 C.2    89  ALA89       0.2260
     97  O         19.3590   58.4440   17.9440 O.2    89  ALA89      -0.2867
     98  CB        20.9950   58.5640   20.2520 C.3    89  ALA89       0.0290
     99  N         19.5130   56.5380   15.4940 N.3    92  ASP92      -0.1239
    100  CA        19.3910   55.3390   16.2930 C.3    92  ASP92       0.1674
    101  C         17.9770   55.2970   16.9150 C.2    92  ASP92       0.2266
    102  O         17.2760   54.2990   16.8390 O.2    92  ASP92      -0.2867
    103  CB        20.5290   55.4200   17.3130 C.3    92  ASP92       0.1410
    104  CG        20.6270   54.2270   18.2630 C.2    92  ASP92       0.3668
    105  OD1       19.7900   53.2890   18.2280 O.co2  92  ASP92      -0.2456
    106  OD2       21.6350   54.2600   19.0340 O.co2  92  ASP92      -0.2456
@<TRIPOS>BOND
     1    99   100    1
     2   100   101    1
     3   100   103    1
     4   102   101    2
     5   103   104    1
     6    12    11    2
     7    97    96    2
     8    96    95    1
     9   105   104   ar
    10   104   106   ar
    11    11    10    1
    12    10     9    1
    13    10    13    1
    14    95    94    1
    15    95    98    1
    16    15    17   ar
    17    15    14   ar
    18    63    62    1
    19    13    14    1
    20    17    19   ar
    21    20    21    1
    22    14    16   ar
    23    28    26   ar
    24    28    30   ar
    25    26    25   ar
    26    19    18   ar
    27    62    60   ar
    28    62    61   ar
    29    60    58   ar
    30    30    29   ar
    31     4     3    2
    32    16    18   ar
    33    21    22    1
    34    21    24    1
    35    90    89    2
    36    25    24    1
    37    25    27   ar
    38    22    23    2
    39    61    59   ar
    40     3     2    1
    41    58    57   ar
    42    29    27   ar
    43    89    88    1
    44    81    80    2
    45    59    57   ar
    46     2     1    1
    47     2     5    1
    48    57    56    1
    49    88    87    1
    50    88    91    1
    51    55    54    2
    52    92    91    1
    53    80    87   am
    54    80    79    1
    55    75    73   ar
    56    75    77   ar
    57    72    73   ar
    58    72    70   ar
    59     7     5    1
    60    73    71   ar
    61    91    93    1
    62    79    78    1
    63    79    82    1
    64    77    76   ar
    65     5     6    1
    66    54    53    1
    67    56    53    1
    68    70    69   ar
    69    53    52    1
    70     8     6    1
    71    82    83    1
    72    71    69   ar
    73    71    74   ar
    74    76    74   ar
    75    69    68    1
    76    83    84    1
    77    36    37    1
    78    36    35    1
    79    37    31    1
    80    86    84   am
    81    68    65    1
    82    64    65    1
    83    84    85    2
    84    65    66    1
    85    35    32    1
    86    41    40    2
    87    49    48    2
    88    31    32    1
    89    45    43   ar
    90    47    48    1
    91    47    46    1
    92    47    50    1
    93    32    33    1
    94    40    46   am
    95    40    39    1
    96    51    50    1
    97    42    43    1
    98    42    39    1
    99    43    44   ar
   100    66    67    2
   101    39    38    1
   102    33    34    2
