@<TRIPOS>MOLECULE
tmp/2ou5B01.pdb
 126 123 0 0 0
SMALL
GASTEIGER

@<TRIPOS>ATOM
      1  N         31.2810   25.7910   66.1180 N.3    30  HIS30      -0.1241
      2  CA        31.9000   26.9580   65.5300 C.3    30  HIS30       0.1621
      3  C         32.6400   27.8500   66.5480 C.2    30  HIS30       0.2264
      4  O         32.2950   29.0180   66.7490 O.2    30  HIS30      -0.2867
      5  CB        30.8710   27.7800   64.7650 C.3    30  HIS30       0.0745
      6  CG        30.2920   27.0520   63.5800 C.ar   30  HIS30       0.0817
      7  ND1       28.9470   26.7520   63.4760 N.ar   30  HIS30      -0.2268
      8  CD2       30.8690   26.5870   62.4480 C.ar   30  HIS30       0.1154
      9  CE1       28.7310   26.1160   62.3360 C.ar   30  HIS30       0.1986
     10  NE2       29.8750   26.0030   61.6890 N.ar   30  HIS30      -0.2212
     11  N         44.2290   38.6090   65.7650 N.3    42  ASP42      -0.1239
     12  CA        43.3010   38.3350   64.6940 C.3    42  ASP42       0.1674
     13  C         42.4380   37.1770   65.2270 C.2    42  ASP42       0.2266
     14  O         42.8620   36.4780   66.1360 O.2    42  ASP42      -0.2867
     15  CB        44.0940   37.8970   63.4520 C.3    42  ASP42       0.1410
     16  CG        43.3270   38.0390   62.1850 C.2    42  ASP42       0.3668
     17  OD1       42.0890   38.2760   62.2630 O.co2  42  ASP42      -0.2456
     18  OD2       43.9550   37.9470   61.0880 O.co2  42  ASP42      -0.2456
     19  N         38.8490   34.3610   64.0520 N.3    44  ARG44      -0.1231
     20  CA        37.9480   33.8790   63.0320 C.3    44  ARG44       0.1694
     21  C         37.2980   32.5980   63.5030 C.2    44  ARG44       0.2593
     22  O         37.8430   31.8910   64.3280 O.2    44  ARG44      -0.2718
     23  CB        38.6770   33.6030   61.6900 C.3    44  ARG44       0.0321
     24  CG        39.4620   32.2990   61.5860 C.3    44  ARG44       0.0489
     25  CD        40.7290   32.3430   62.4280 C.3    44  ARG44       0.2205
     26  NE        41.7660   33.2340   61.8840 N.pl3  44  ARG44      -0.0865
     27  CZ        42.8190   33.7170   62.5630 C.cat  44  ARG44       0.5346
     28  NH1       42.9260   33.5660   63.8660 N.pl3  44  ARG44       0.1354
     29  NH2       43.7130   34.4730   61.9360 N.pl3  44  ARG44       0.1354
     30  N         36.1140   32.3110   62.9390 N.am   45  THR45      -0.1939
     31  CA        35.4230   31.0530   63.1590 C.3    45  THR45       0.2028
     32  C         36.0750   29.8870   62.4100 C.2    45  THR45       0.2642
     33  O         36.4970   30.0460   61.2380 O.2    45  THR45      -0.2714
     34  CB        33.9700   31.2020   62.6710 C.3    45  THR45       0.1808
     35  OG1       33.3170   32.2280   63.4030 O.3    45  THR45      -0.2208
     36  CG2       33.1910   29.9340   62.8610 C.3    45  THR45       0.0379
     37  N         36.1390   28.7060   63.0620 N.am   46  LEU46      -0.1963
     38  CA        36.4320   27.4450   62.3850 C.3    46  LEU46       0.1728
     39  C         35.4320   26.4070   62.8250 C.2    46  LEU46       0.2616
     40  O         34.7730   26.5760   63.8570 O.2    46  LEU46      -0.2715
     41  CB        37.8570   26.9770   62.6510 C.3    46  LEU46       0.0311
     42  CG        38.9230   27.8510   61.9520 C.3    46  LEU46       0.0022
     43  CD1       39.3600   28.8960   62.8880 C.3    46  LEU46       0.0001
     44  CD2       40.1300   27.0070   61.4990 C.3    46  LEU46       0.0001
     45  N         35.3310   25.3210   62.0630 N.am   47  VAL47      -0.1977
     46  CA        34.5360   24.1760   62.4320 C.3    47  VAL47       0.1596
     47  C         35.3450   23.2480   63.3190 C.2    47  VAL47       0.2287
     48  O         36.4620   22.8530   62.9480 O.2    47  VAL47      -0.2864
     49  CB        34.1270   23.3760   61.2010 C.3    47  VAL47       0.0276
     50  CG1       33.4620   22.0580   61.5910 C.3    47  VAL47       0.0022
     51  CG2       33.1630   24.1890   60.3600 C.3    47  VAL47       0.0022
     52  N         36.4450   19.8630   64.5170 N.3    49  ARG49      -0.1245
     53  CA        36.4230   18.5320   63.8900 C.3    49  ARG49       0.1563
     54  C         36.5850   17.4050   64.8880 C.2    49  ARG49       0.2260
     55  O         36.0520   16.3150   64.6610 O.2    49  ARG49      -0.2867
     56  CB        37.5160   18.3960   62.8120 C.3    49  ARG49       0.0307
     57  CG        37.4270   19.3870   61.7200 C.3    49  ARG49       0.0489
     58  CD        36.1760   19.1870   60.8220 C.3    49  ARG49       0.2205
     59  NE        36.0610   20.3320   59.9240 N.pl3  49  ARG49      -0.0865
     60  CZ        35.0630   20.5250   59.0530 C.cat  49  ARG49       0.5346
     61  NH1       34.0680   19.6750   58.9260 N.pl3  49  ARG49       0.1354
     62  NH2       35.0710   21.6110   58.3000 N.pl3  49  ARG49       0.1354
     63  N         40.3210   21.8720   60.8170 N.3    61  HIS61      -0.1226
     64  CA        40.9240   21.7480   59.4640 C.3    61  HIS61       0.1752
     65  C         41.0040   23.0840   58.7690 C.2    61  HIS61       0.2597
     66  O         40.0920   23.8850   58.8710 O.2    61  HIS61      -0.2718
     67  CB        40.1130   20.7800   58.6680 C.3    61  HIS61       0.0759
     68  CG        40.1460   19.3970   59.2270 C.ar   61  HIS61       0.0818
     69  ND1       39.2050   18.4500   58.8940 N.ar   61  HIS61      -0.2268
     70  CD2       40.9180   18.8480   60.1950 C.ar   61  HIS61       0.1154
     71  CE1       39.4690   17.3340   59.5560 C.ar   61  HIS61       0.1986
     72  NE2       40.4810   17.5630   60.3760 N.ar   61  HIS61      -0.2212
     73  N         42.0970   23.3420   58.0420 N.am   62  THR62      -0.1939
     74  CA        42.2410   24.6420   57.4120 C.3    62  THR62       0.2028
     75  C         43.1080   24.5090   56.1600 C.2    62  THR62       0.2642
     76  O         43.6570   23.4370   55.8960 O.2    62  THR62      -0.2714
     77  CB        42.8320   25.6790   58.4040 C.3    62  THR62       0.1808
     78  OG1       42.5800   27.0070   57.9260 O.3    62  THR62      -0.2208
     79  CG2       44.2930   25.4430   58.6460 C.3    62  THR62       0.0379
     80  N         43.2290   25.6080   55.4550 N.am   63  ASP63      -0.1971
     81  CA        44.0390   25.7390   54.2490 C.3    63  ASP63       0.1709
     82  C         45.4490   26.2110   54.6430 C.2    63  ASP63       0.2293
     83  O         45.6270   27.3000   55.2010 O.2    63  ASP63      -0.2864
     84  CB        43.3240   26.7370   53.3060 C.3    63  ASP63       0.1436
     85  CG        44.0100   26.9290   51.9710 C.2    63  ASP63       0.3671
     86  OD1       45.1910   26.5080   51.7620 O.co2  63  ASP63      -0.2456
     87  OD2       43.3280   27.5830   51.1230 O.co2  63  ASP63      -0.2456
     88  N         46.2850   32.9120   55.8610 N.3    67  PRO67      -0.2102
     89  CA        46.9760   33.7080   56.8860 C.3    67  PRO67       0.1504
     90  C         47.0890   33.1200   58.2680 C.2    67  PRO67       0.2575
     91  O         48.1610   33.1460   58.8670 O.2    67  PRO67      -0.2718
     92  CB        46.1990   35.0450   56.8630 C.3    67  PRO67       0.0282
     93  CG        45.6320   35.1140   55.4520 C.3    67  PRO67       0.0208
     94  CD        45.2200   33.7000   55.1880 C.3    67  PRO67       0.0893
     95  N         46.0400   32.4670   58.7710 N.am   68  LYS68      -0.1980
     96  CA        46.1070   31.9150   60.1390 C.3    68  LYS68       0.1596
     97  C         47.2510   30.9240   60.3170 C.2    68  LYS68       0.2287
     98  O         47.8220   30.8090   61.3810 O.2    68  LYS68      -0.2864
     99  CB        44.7830   31.2640   60.4940 C.3    68  LYS68       0.0298
    100  CG        44.5270   29.7720   60.0350 C.3    68  LYS68       0.0038
    101  CD        43.1230   29.2640   60.3080 C.3    68  LYS68       0.0206
    102  CE        42.0550   30.0530   59.5470 C.3    68  LYS68       0.1093
    103  NZ        42.3060   30.1680   58.0650 N.3    68  LYS68      -0.1314
    104  N         39.7890   24.3670   48.5480 N.3   117  TYR117     -0.1241
    105  CA        41.1900   24.1560   48.8880 C.3   117  TYR117      0.1605
    106  C         42.1740   24.3320   47.7410 C.2   117  TYR117      0.2264
    107  O         43.3770   24.2240   47.9520 O.2   117  TYR117     -0.2867
    108  CB        41.3910   22.7470   49.4910 C.3   117  TYR117      0.0534
    109  CG        40.9620   22.6340   50.9410 C.ar  117  TYR117     -0.0201
    110  CD1       41.7760   23.0650   51.9310 C.ar  117  TYR117     -0.0009
    111  CD2       39.7320   22.0870   51.3010 C.ar  117  TYR117     -0.0009
    112  CE1       41.4090   22.9720   53.2530 C.ar  117  TYR117      0.0417
    113  CE2       39.3440   21.9820   52.6100 C.ar  117  TYR117      0.0417
    114  CZ        40.1820   22.4310   53.5990 C.ar  117  TYR117      0.1957
    115  OH        39.8410   22.3220   54.9140 O.3   117  TYR117     -0.2866
    116  N         43.3410   32.2810   50.3460 N.3   122  PRO122     -0.2102
    117  CA        42.3090   33.0040   51.0840 C.3   122  PRO122      0.1504
    118  C         42.7270   34.4410   51.4030 C.2   122  PRO122      0.2576
    119  O         43.8690   34.6830   51.8560 O.2   122  PRO122     -0.2718
    120  CB        42.1650   32.1860   52.3780 C.3   122  PRO122      0.0282
    121  CG        42.5790   30.7610   51.9580 C.3   122  PRO122      0.0208
    122  CD        43.6260   30.9430   50.9220 C.3   122  PRO122      0.0893
    123  N         41.8200   35.3860   51.1860 N.am  123  GLY123     -0.1957
    124  CA        42.1050   36.8030   51.4370 C.3   123  GLY123      0.1869
    125  C         42.7560   37.6220   50.3280 C.2   123  GLY123      0.2309
    126  O         42.8420   38.8610   50.4290 O.2   123  GLY123     -0.2863
@<TRIPOS>BOND
     1   106   107    2
     2   106   105    1
     3   104   105    1
     4   105   108    1
     5   108   109    1
     6   125   126    2
     7   125   124    1
     8   116   122    1
     9   116   117    1
    10   122   121    1
    11   109   111   ar
    12   109   110   ar
    13   117   118    1
    14   117   120    1
    15    87    85   ar
    16   123   118   am
    17   123   124    1
    18   111   113   ar
    19   118   119    2
    20    86    85   ar
    21   110   112   ar
    22   121   120    1
    23    85    84    1
    24   113   114   ar
    25   112   114   ar
    26    84    81    1
    27   114   115    1
    28    81    82    1
    29    81    80    1
    30    82    83    2
    31    94    93    1
    32    94    88    1
    33    93    92    1
    34    80    75   am
    35    88    89    1
    36    76    75    2
    37    75    74    1
    38    92    89    1
    39    89    90    1
    40    74    73    1
    41    74    77    1
    42    78    77    1
    43    73    65   am
    44   103   102    1
    45    90    95   am
    46    90    91    2
    47    62    60    1
    48    77    79    1
    49    67    68    1
    50    67    64    1
    51    65    66    2
    52    65    64    1
    53    95    96    1
    54    69    68   ar
    55    69    71   ar
    56    61    60    1
    57    60    59    2
    58    68    70   ar
    59    64    63    1
    60   102   101    1
    61    71    72   ar
    62    59    58    1
    63   100   101    1
    64   100    99    1
    65    96    97    1
    66    96    99    1
    67    70    72   ar
    68    97    98    2
    69    51    49    1
    70    58    57    1
    71    18    16   ar
    72    49    50    1
    73    49    46    1
    74    33    32    2
    75    44    42    1
    76    24    23    1
    77    24    25    1
    78    10     9   ar
    79    10     8   ar
    80    23    20    1
    81    57    56    1
    82    26    25    1
    83    26    27    2
    84    29    27    1
    85    42    41    1
    86    42    43    1
    87    45    46    1
    88    45    39   am
    89    16    17   ar
    90    16    15    1
    91     9     7   ar
    92    38    41    1
    93    38    39    1
    94    38    37    1
    95    32    37   am
    96    32    31    1
    97    46    47    1
    98     8     6   ar
    99    27    28    1
   100    34    36    1
   101    34    31    1
   102    34    35    1
   103    56    53    1
   104    39    40    2
   105    30    31    1
   106    30    21   am
   107    48    47    2
   108    20    21    1
   109    20    19    1
   110    15    12    1
   111     7     6   ar
   112    21    22    2
   113     6     5    1
   114    53    52    1
   115    53    54    1
   116    55    54    2
   117    12    13    1
   118    12    11    1
   119     5     2    1
   120    13    14    2
   121     2     1    1
   122     2     3    1
   123     3     4    2
