@<TRIPOS>MOLECULE
tmp/2ou7A00.pdb
 122 112 0 0 0
SMALL
GASTEIGER

@<TRIPOS>ATOM
      1  N         50.7030   11.3390   39.9350 N.3    23  LEU23      -0.1231
      2  CA        49.5350   10.8640   40.6920 C.3    23  LEU23       0.1693
      3  C         48.7770    9.6890   40.0540 C.2    23  LEU23       0.2593
      4  O         48.1750    8.8990   40.7740 O.2    23  LEU23      -0.2718
      5  CB        48.5530   12.0170   40.9310 C.3    23  LEU23       0.0284
      6  CG        49.0630   13.1840   41.7830 C.3    23  LEU23       0.0019
      7  CD1       48.1480   14.3940   41.6480 C.3    23  LEU23       0.0001
      8  CD2       49.1850   12.7730   43.2360 C.3    23  LEU23       0.0001
      9  N         48.7740    9.5810   38.7260 N.am   24  GLY24      -0.1942
     10  CA        48.1530    8.4390   38.0620 C.3    24  GLY24       0.2014
     11  C         47.4370    8.7440   36.7560 C.2    24  GLY24       0.2639
     12  O         47.0170    9.8730   36.5120 O.2    24  GLY24      -0.2714
     13  N         47.2850    7.7180   35.9210 N.am   25  LYS25      -0.1963
     14  CA        46.6570    7.8600   34.6090 C.3    25  LYS25       0.1728
     15  C         45.1990    7.4120   34.6530 C.2    25  LYS25       0.2616
     16  O         44.8710    6.3830   35.2350 O.2    25  LYS25      -0.2715
     17  CB        47.4230    7.0370   33.5590 C.3    25  LYS25       0.0311
     18  CG        46.8180    7.0730   32.1510 C.3    25  LYS25       0.0038
     19  CD        47.8060    6.6240   31.0610 C.3    25  LYS25       0.0206
     20  CE        47.8010    7.5560   29.8410 C.3    25  LYS25       0.1093
     21  NZ        47.7970    6.8070   28.5460 N.3    25  LYS25      -0.1314
     22  N         44.3280    8.2020   34.0370 N.am   26  GLY26      -0.1955
     23  CA        42.9490    7.8120   33.8100 C.3    26  GLY26       0.1869
     24  C         42.5630    8.1190   32.3750 C.2    26  GLY26       0.2309
     25  O         42.4670    9.2900   31.9930 O.2    26  GLY26      -0.2863
     26  N         44.3660   11.2830   30.0700 N.3    29  ALA29      -0.1245
     27  CA        45.1470   12.2050   30.8930 C.3    29  ALA29       0.1562
     28  C         46.1090   11.5290   31.8800 C.2    29  ALA29       0.2260
     29  O         45.7330   10.6010   32.5890 O.2    29  ALA29      -0.2867
     30  CB        44.2070   13.1540   31.6550 C.3    29  ALA29       0.0290
     31  N         47.9260   12.5670   35.2630 N.3    31  CYS31      -0.1235
     32  CA        47.7230   13.5730   36.3070 C.3    31  CYS31       0.1677
     33  C         48.9740   13.7200   37.1890 C.2    31  CYS31       0.2270
     34  O         49.6610   12.7420   37.4580 O.2    31  CYS31      -0.2867
     35  CB        46.4870   13.2180   37.1380 C.3    31  CYS31       0.0956
     36  SG        46.3020   14.1710   38.6630 S.3    31  CYS31      -0.0801
     37  N         46.2280   19.8310   41.2850 N.3    44  ALA44      -0.1245
     38  CA        46.2130   18.6550   40.4210 C.3    44  ALA44       0.1562
     39  C         46.2700   19.1590   38.9880 C.2    44  ALA44       0.2260
     40  O         45.6140   20.1360   38.6400 O.2    44  ALA44      -0.2867
     41  CB        44.9670   17.8050   40.6560 C.3    44  ALA44       0.0290
     42  N         45.7290   17.8780   35.2310 N.3    46  LYS46      -0.1245
     43  CA        45.2810   16.9390   34.2070 C.3    46  LYS46       0.1561
     44  C         46.0090   17.2690   32.8910 C.2    46  LYS46       0.2260
     45  O         45.9760   18.4040   32.4270 O.2    46  LYS46      -0.2867
     46  CB        43.7580   17.0570   34.0330 C.3    46  LYS46       0.0271
     47  CG        42.9730   15.7410   34.1200 C.3    46  LYS46       0.0035
     48  CD        41.5590   15.9370   33.5200 C.3    46  LYS46       0.0206
     49  CE        40.7360   14.6630   33.5190 C.3    46  LYS46       0.1093
     50  NZ        39.8900   14.5870   32.2960 N.3    46  LYS46      -0.1314
     51  N         35.2480   19.6600   43.0090 N.3    78  VAL78      -0.1245
     52  CA        36.6480   19.9170   42.7070 C.3    78  VAL78       0.1561
     53  C         36.7490   21.2890   42.0500 C.2    78  VAL78       0.2260
     54  O         36.1920   21.5110   40.9670 O.2    78  VAL78      -0.2867
     55  CB        37.2610   18.8670   41.7450 C.3    78  VAL78       0.0252
     56  CG1       38.6700   19.2950   41.3050 C.3    78  VAL78       0.0019
     57  CG2       37.3030   17.4890   42.3850 C.3    78  VAL78       0.0019
     58  N         43.4300   22.0000   38.6340 N.3    94  LEU94      -0.1231
     59  CA        42.2910   21.6700   39.4940 C.3    94  LEU94       0.1693
     60  C         42.6810   21.7320   40.9620 C.2    94  LEU94       0.2592
     61  O         43.8610   21.6810   41.2980 O.2    94  LEU94      -0.2718
     62  CB        41.7760   20.2630   39.1670 C.3    94  LEU94       0.0284
     63  CG        41.3300   20.0060   37.7270 C.3    94  LEU94       0.0019
     64  CD1       41.1160   18.5180   37.4570 C.3    94  LEU94       0.0001
     65  CD2       40.0670   20.7880   37.4460 C.3    94  LEU94       0.0001
     66  N         41.6770   21.8370   41.8250 N.am   95  GLU95      -0.1966
     67  CA        41.8600   21.6680   43.2620 C.3    95  GLU95       0.1733
     68  C         42.4390   20.2740   43.5300 C.2    95  GLU95       0.2616
     69  O         41.8400   19.2590   43.1660 O.2    95  GLU95      -0.2715
     70  CB        40.5280   21.8250   43.9970 C.3    95  GLU95       0.0429
     71  CG        40.5960   21.6530   45.5050 C.3    95  GLU95       0.1163
     72  CD        39.2410   21.7920   46.1860 C.2    95  GLU95       0.3649
     73  OE1       39.2150   21.8300   47.4310 O.co2  95  GLU95      -0.2457
     74  OE2       38.1920   21.8540   45.5060 O.co2  95  GLU95      -0.2457
     75  N         43.6150   20.2580   44.1500 N.am   96  LEU96      -0.1963
     76  CA        44.2880   19.0320   44.5630 C.3    96  LEU96       0.1728
     77  C         43.5410   18.3670   45.7150 C.2    96  LEU96       0.2616
     78  O         43.1160   19.0300   46.6660 O.2    96  LEU96      -0.2715
     79  CB        45.7120   19.3540   45.0120 C.3    96  LEU96       0.0311
     80  CG        46.6170   18.1990   45.4110 C.3    96  LEU96       0.0022
     81  CD1       46.6990   17.1470   44.3120 C.3    96  LEU96       0.0001
     82  CD2       47.9990   18.7500   45.7240 C.3    96  LEU96       0.0001
     83  N         43.3880   17.0520   45.6050 N.am   97  CYS97      -0.1968
     84  CA        42.7470   16.2420   46.6280 C.3    97  CYS97       0.1712
     85  C         43.7210   15.1300   46.9960 C.2    97  CYS97       0.2296
     86  O         43.7840   14.0930   46.3240 O.2    97  CYS97      -0.2864
     87  CB        41.4350   15.6810   46.0970 C.3    97  CYS97       0.0983
     88  SG        40.2450   16.9690   45.6730 S.3    97  CYS97      -0.0798
     89  N         43.0850   11.0770   47.5390 N.3   100  ARG100     -0.1245
     90  CA        42.4990   10.2330   46.4870 C.3   100  ARG100      0.1563
     91  C         40.9560   10.2160   46.5470 C.2   100  ARG100      0.2260
     92  O         40.3650   11.2190   46.8940 O.2   100  ARG100     -0.2867
     93  CB        43.1140    8.8300   46.5610 C.3   100  ARG100      0.0307
     94  CG        44.6410    8.8670   46.6190 C.3   100  ARG100      0.0489
     95  CD        45.3530    7.5770   46.2000 C.3   100  ARG100      0.2205
     96  NE        44.9070    7.0430   44.9050 N.pl3 100  ARG100     -0.0865
     97  CZ        45.5140    6.0450   44.2470 C.cat 100  ARG100      0.5346
     98  NH1       46.6160    5.4680   44.7390 N.pl3 100  ARG100      0.1354
     99  NH2       45.0220    5.6260   43.0780 N.pl3 100  ARG100      0.1354
    100  N         34.8970    6.5660   42.6750 N.3   144  GLY144     -0.1225
    101  CA        36.1260    7.0100   42.0420 C.3   144  GLY144      0.1811
    102  C         36.0700    8.4400   41.5320 C.2   144  GLY144      0.2280
    103  O         37.1150    9.0130   41.2350 O.2   144  GLY144     -0.2866
    104  N         36.2860   12.7910   45.3500 N.3   147  PHE147     -0.1241
    105  CA        37.6450   12.9650   45.8350 C.3   147  PHE147      0.1605
    106  C         37.6900   13.4970   47.2620 C.2   147  PHE147      0.2264
    107  O         36.7630   14.1500   47.7190 O.2   147  PHE147     -0.2867
    108  CB        38.4180   13.8610   44.8730 C.3   147  PHE147      0.0534
    109  CG        38.5750   13.2610   43.5080 C.ar  147  PHE147     -0.0203
    110  CD1       37.6190   13.4740   42.5230 C.ar  147  PHE147     -0.0042
    111  CD2       39.6690   12.4530   43.2150 C.ar  147  PHE147     -0.0042
    112  CE1       37.7630   12.9080   41.2580 C.ar  147  PHE147     -0.0003
    113  CE2       39.8140   11.8820   41.9610 C.ar  147  PHE147     -0.0003
    114  CZ        38.8640   12.1060   40.9810 C.ar  147  PHE147     -0.0000
    115  N         35.2470   15.0930   37.7400 N.3   158  ASP158     -0.1239
    116  CA        35.0380   14.4020   36.4710 C.3   158  ASP158      0.1674
    117  C         33.6520   14.6280   35.8510 C.2   158  ASP158      0.2266
    118  O         32.7360   13.8030   35.9770 O.2   158  ASP158     -0.2867
    119  CB        35.3240   12.9190   36.6190 C.3   158  ASP158      0.1410
    120  CG        35.3650   12.2010   35.2920 C.2   158  ASP158      0.3668
    121  OD1       35.4710   12.8560   34.2150 O.co2 158  ASP158     -0.2456
    122  OD2       35.2860   10.9640   35.2540 O.co2 158  ASP158     -0.2456
@<TRIPOS>BOND
     1    21    20    1
     2    20    19    1
     3    26    27    1
     4    27    30    1
     5    27    28    1
     6    19    18    1
     7    28    29    2
     8    25    24    2
     9    18    17    1
    10    50    49    1
    11    24    23    1
    12    45    44    2
    13    44    43    1
    14    49    48    1
    15    48    47    1
    16    17    14    1
    17    23    22    1
    18    46    47    1
    19    46    43    1
    20    22    15   am
    21    43    42    1
    22   121   120   ar
    23    14    15    1
    24    14    13    1
    25    15    16    2
    26   122   120   ar
    27    31    32    1
    28   120   119    1
    29   117   118    2
    30   117   116    1
    31    13    11   am
    32    32    35    1
    33    32    33    1
    34   116   119    1
    35   116   115    1
    36    12    11    2
    37    11    10    1
    38    35    36    1
    39    33    34    2
    40    65    63    1
    41    64    63    1
    42    63    62    1
    43    10     9    1
    44    58    59    1
    45    40    39    2
    46     9     3   am
    47    39    38    1
    48    62    59    1
    49    59    60    1
    50     1     2    1
    51     3     2    1
    52     3     4    2
    53    38    41    1
    54    38    37    1
    55     2     5    1
    56     5     6    1
    57    60    61    2
    58    60    66   am
    59    54    53    2
    60   114   112   ar
    61   114   113   ar
    62   103   102    2
    63   112   110   ar
    64    56    55    1
    65   102   101    1
    66     7     6    1
    67    55    57    1
    68    55    52    1
    69     6     8    1
    70    66    67    1
    71   113   111   ar
    72   101   100    1
    73    53    52    1
    74   110   109   ar
    75    52    51    1
    76    99    97    1
    77    69    68    2
    78   111   109   ar
    79    67    68    1
    80    67    70    1
    81   109   108    1
    82    68    75   am
    83    70    71    1
    84    75    76    1
    85    97    98    1
    86    97    96    2
    87    81    80    1
    88    76    79    1
    89    76    77    1
    90   108   105    1
    91    96    95    1
    92    79    80    1
    93   104   105    1
    94    80    82    1
    95    71    72    1
    96    74    72   ar
    97    83    77   am
    98    83    84    1
    99    88    87    1
   100    77    78    2
   101   105   106    1
   102    87    84    1
   103    72    73   ar
   104    95    94    1
   105    86    85    2
   106    90    91    1
   107    90    93    1
   108    90    89    1
   109    91    92    2
   110    93    94    1
   111    84    85    1
   112   106   107    2
