@<TRIPOS>MOLECULE
tmp/2ou9A00.pdb
 69 64 0 0 0
SMALL
GASTEIGER

@<TRIPOS>ATOM
      1  N         17.1470    7.8450   57.0480 N.3    82  ALA82      -0.1231
      2  CA        16.3790    7.1450   56.0290 C.3    82  ALA82       0.1694
      3  C         16.9840    7.1970   54.6390 C.2    82  ALA82       0.2591
      4  O         16.6480    6.3690   53.7690 O.2    82  ALA82      -0.2718
      5  CB        14.9760    7.7390   56.0030 C.3    82  ALA82       0.0304
      6  N         17.8620    8.1650   54.3800 N.am   83  LYS83      -0.1980
      7  CA        18.4620    8.1810   53.0440 C.3    83  LYS83       0.1596
      8  C         19.7470    7.3800   53.0130 C.2    83  LYS83       0.2287
      9  O         20.1480    6.8420   51.9740 O.2    83  LYS83      -0.2864
     10  CB        18.6700    9.6450   52.6090 C.3    83  LYS83       0.0298
     11  CG        17.3210   10.3690   52.5680 C.3    83  LYS83       0.0038
     12  CD        17.4370   11.6600   51.7930 C.3    83  LYS83       0.0206
     13  CE        16.1310   12.1120   51.1540 C.3    83  LYS83       0.1093
     14  NZ        16.3880   13.1100   50.0680 N.3    83  LYS83      -0.1314
     15  N         19.5920    2.5060   53.7940 N.3    86  PRO86      -0.2102
     16  CA        19.4680    1.4490   52.7730 C.3    86  PRO86       0.1504
     17  C         20.7250    1.2790   51.9340 C.2    86  PRO86       0.2575
     18  O         21.0850    0.1410   51.6120 O.2    86  PRO86      -0.2718
     19  CB        18.3290    1.9110   51.8750 C.3    86  PRO86       0.0282
     20  CG        17.6530    3.0330   52.5860 C.3    86  PRO86       0.0208
     21  CD        18.6040    3.5710   53.6140 C.3    86  PRO86       0.0893
     22  N         21.3930    2.3750   51.5880 N.am   87  VAL87      -0.1980
     23  CA        22.6400    2.1890   50.8440 C.3    87  VAL87       0.1595
     24  C         23.6970    1.5010   51.6840 C.2    87  VAL87       0.2287
     25  O         24.3280    0.5510   51.2210 O.2    87  VAL87      -0.2864
     26  CB        23.1870    3.5340   50.3170 C.3    87  VAL87       0.0276
     27  CG1       24.4360    3.2820   49.4890 C.3    87  VAL87       0.0022
     28  CG2       22.1120    4.2180   49.4980 C.3    87  VAL87       0.0022
     29  N         23.8050   12.8110   52.6100 N.3   112  ALA112     -0.1245
     30  CA        22.4660   12.5070   52.1090 C.3   112  ALA112      0.1562
     31  C         22.2150   13.2540   50.8120 C.2   112  ALA112      0.2260
     32  O         21.5640   12.8000   49.8680 O.2   112  ALA112     -0.2867
     33  CB        21.4560   12.8900   53.1800 C.3   112  ALA112      0.0290
     34  N         22.4480   12.2270   46.6240 N.3   115  CYS115     -0.1221
     35  CA        21.4580   11.2000   46.3360 C.3   115  CYS115      0.1808
     36  C         21.7170   10.5330   44.9940 C.2   115  CYS115      0.2601
     37  O         21.4450    9.3490   44.8070 O.2   115  CYS115     -0.2717
     38  CB        20.0460   11.7810   46.3800 C.3   115  CYS115      0.0970
     39  SG        19.1360   12.1330   47.8990 S.3   115  CYS115     -0.0800
     40  N         22.2760   11.2700   44.0270 N.am  116  ASN116     -0.1974
     41  CA        22.4460   10.5920   42.7350 C.3   116  ASN116      0.1688
     42  C         23.5480    9.5520   42.8940 C.2   116  ASN116      0.2292
     43  O         23.4290    8.4530   42.3350 O.2   116  ASN116     -0.2864
     44  CB        22.7080   11.6030   41.6180 C.3   116  ASN116      0.1181
     45  CG        21.4500   12.3940   41.2680 C.2   116  ASN116      0.2629
     46  OD1       20.3210   11.8710   41.2780 O.2   116  ASN116     -0.2716
     47  ND2       21.5950   13.6790   40.9550 N.am  116  ASN116     -0.0877
     48  N         24.3970    8.0660   45.6650 N.3   118  LEU118     -0.1231
     49  CA        23.9120    6.9910   46.5320 C.3   118  LEU118      0.1693
     50  C         23.0960    5.9710   45.7480 C.2   118  LEU118      0.2591
     51  O         23.2020    4.7430   45.9130 O.2   118  LEU118     -0.2718
     52  CB        23.0740    7.5760   47.6630 C.3   118  LEU118      0.0284
     53  CG        23.8790    8.4150   48.6650 C.3   118  LEU118      0.0019
     54  CD1       22.9630    9.1470   49.6350 C.3   118  LEU118      0.0001
     55  CD2       24.8880    7.5200   49.3840 C.3   118  LEU118      0.0001
     56  N         22.2490    6.4830   44.8540 N.am  119  ALA119     -0.1980
     57  CA        21.4590    5.5450   44.0390 C.3   119  ALA119      0.1597
     58  C         22.3470    4.6500   43.1860 C.2   119  ALA119      0.2287
     59  O         22.0900    3.4450   43.0330 O.2   119  ALA119     -0.2864
     60  CB        20.4750    6.3430   43.1790 C.3   119  ALA119      0.0319
     61  N         23.7610    2.0590   45.4030 N.3   122  GLN122     -0.1245
     62  CA        22.7420    1.0580   45.7450 C.3   122  GLN122      0.1566
     63  C         22.6160    0.0290   44.6210 C.2   122  GLN122      0.2260
     64  O         22.3580   -1.1540   44.8470 O.2   122  GLN122     -0.2867
     65  CB        21.4240    1.7920   45.9670 C.3   122  GLN122      0.0367
     66  CG        20.2320    0.9010   46.2550 C.3   122  GLN122      0.0905
     67  CD        20.1140    0.6010   47.7390 C.2   122  GLN122      0.2608
     68  OE1       20.4480    1.4310   48.5760 O.2   122  GLN122     -0.2717
     69  NE2       19.6270   -0.6050   48.0380 N.am  122  GLN122     -0.0878
@<TRIPOS>BOND
     1    47    45   am
     2    45    46    2
     3    45    44    1
     4    44    41    1
     5    43    42    2
     6    41    42    1
     7    41    40    1
     8    59    58    2
     9    60    57    1
    10    58    57    1
    11    40    36   am
    12    57    56    1
    13    63    64    2
    14    63    62    1
    15    37    36    2
    16    56    50   am
    17    36    35    1
    18    61    62    1
    19    48    49    1
    20    62    65    1
    21    50    51    2
    22    50    49    1
    23    65    66    1
    24    66    67    1
    25    35    38    1
    26    35    34    1
    27    38    39    1
    28    49    52    1
    29    52    53    1
    30    67    69   am
    31    67    68    2
    32    53    55    1
    33    53    54    1
    34    27    26    1
    35    28    26    1
    36    32    31    2
    37    14    13    1
    38    26    23    1
    39    31    30    1
    40    23    22    1
    41    23    24    1
    42    13    12    1
    43    25    24    2
    44    22    17   am
    45    18    17    2
    46    12    11    1
    47    19    20    1
    48    19    16    1
    49    17    16    1
    50     9     8    2
    51    30    29    1
    52    30    33    1
    53    11    10    1
    54    20    21    1
    55    10     7    1
    56    16    15    1
    57     8     7    1
    58     7     6    1
    59    21    15    1
    60     4     3    2
    61     6     3   am
    62     3     2    1
    63     5     2    1
    64     2     1    1
