@<TRIPOS>MOLECULE
tmp/2ouaA00.pdb
 88 86 0 0 0
SMALL
GASTEIGER

@<TRIPOS>ATOM
      1  N         56.6150   66.0610  -95.9850 N.3    35  HIS35      -0.1241
      2  CA        56.5620   66.6830  -97.3030 C.3    35  HIS35       0.1621
      3  C         57.9590   66.8240  -97.8990 C.2    35  HIS35       0.2264
      4  O         58.1120   67.1620  -99.0700 O.2    35  HIS35      -0.2867
      5  CB        55.8540   68.0480  -97.2560 C.3    35  HIS35       0.0745
      6  CG        56.6630   69.1440  -96.6340 C.ar   35  HIS35       0.0817
      7  ND1       56.4270   69.6110  -95.3550 N.ar   35  HIS35      -0.2268
      8  CD2       57.6780   69.8920  -97.1250 C.ar   35  HIS35       0.1154
      9  CE1       57.2640   70.5970  -95.0900 C.ar   35  HIS35       0.1986
     10  NE2       58.0340   70.7870  -96.1450 N.ar   35  HIS35      -0.2212
     11  N         47.6380   73.2970  -97.5200 N.3   123  TYR123     -0.1241
     12  CA        48.8630   73.5100  -98.2790 C.3   123  TYR123      0.1605
     13  C         48.4800   73.2740  -99.7360 C.2   123  TYR123      0.2264
     14  O         47.4030   72.7510 -100.0240 O.2   123  TYR123     -0.2867
     15  CB        49.9310   72.4920  -97.8620 C.3   123  TYR123      0.0534
     16  CG        50.4650   72.6680  -96.4560 C.ar  123  TYR123     -0.0201
     17  CD1       50.8010   71.5620  -95.6790 C.ar  123  TYR123     -0.0009
     18  CD2       50.6690   73.9380  -95.9120 C.ar  123  TYR123     -0.0009
     19  CE1       51.3270   71.7110  -94.3940 C.ar  123  TYR123      0.0417
     20  CE2       51.1960   74.0990  -94.6300 C.ar  123  TYR123      0.0417
     21  CZ        51.5240   72.9820  -93.8780 C.ar  123  TYR123      0.1957
     22  OH        52.0630   73.1330  -92.6180 O.3   123  TYR123     -0.2866
     23  N         59.3210   81.2560  -90.6030 N.3   138  ALA138     -0.1231
     24  CA        60.0600   80.1880  -91.2750 C.3   138  ALA138      0.1694
     25  C         60.0810   80.4550  -92.7780 C.2   138  ALA138      0.2592
     26  O         59.2350   81.1850  -93.2960 O.2   138  ALA138     -0.2718
     27  CB        59.4150   78.8320  -90.9870 C.3   138  ALA138      0.0304
     28  N         61.0510   79.8700  -93.4730 N.am  139  GLU139     -0.1966
     29  CA        61.1680   80.0470  -94.9180 C.3   139  GLU139      0.1718
     30  C         61.5370   78.7270  -95.5930 C.2   139  GLU139      0.2458
     31  O         62.0700   77.8220  -94.9510 O.2   139  GLU139     -0.2730
     32  CB        62.2240   81.1210  -95.2280 C.3   139  GLU139      0.0428
     33  CG        61.7570   82.5470  -94.9290 C.3   139  GLU139      0.1163
     34  CD        62.8670   83.5830  -95.0620 C.2   139  GLU139      0.3649
     35  OE1       63.7440   83.4170  -95.9360 O.co2 139  GLU139     -0.2457
     36  OE2       62.8560   84.5740  -94.3000 O.co2 139  GLU139     -0.2457
     37  N         61.2500   78.5990  -96.9000 N.am  140  PRO140     -0.2727
     38  CA        61.5720   77.3630  -97.6180 C.3   140  PRO140      0.1402
     39  C         62.9880   76.8980  -97.3040 C.2   140  PRO140      0.2269
     40  O         63.9440   77.6740  -97.4000 O.2   140  PRO140     -0.2865
     41  CB        61.3910   77.7610  -99.0790 C.3   140  PRO140      0.0296
     42  CG        60.2430   78.7240  -99.0020 C.3   140  PRO140      0.0237
     43  CD        60.6330   79.5850  -97.8070 C.3   140  PRO140      0.0939
     44  N         63.6240   75.4850  -94.3130 N.3   142  ASP142     -0.1225
     45  CA        63.5270   75.2650  -92.8700 C.3   142  ASP142      0.1805
     46  C         62.6500   74.0510  -92.5460 C.2   142  ASP142      0.2598
     47  O         62.6830   73.5390  -91.4250 O.2   142  ASP142     -0.2718
     48  CB        62.9360   76.4910  -92.1600 C.3   142  ASP142      0.1424
     49  CG        63.8770   77.6880  -92.1430 C.2   142  ASP142      0.3668
     50  OD1       65.1120   77.4930  -92.1800 O.co2 142  ASP142     -0.2456
     51  OD2       63.3750   78.8330  -92.0690 O.co2 142  ASP142     -0.2456
     52  N         61.8600   73.6090  -93.5240 N.am  143  SER143     -0.1952
     53  CA        60.9620   72.4610  -93.3570 C.3   143  SER143      0.1924
     54  C         61.6280   71.2640  -92.6980 C.2   143  SER143      0.2314
     55  O         62.7630   70.9180  -93.0310 O.2   143  SER143     -0.2863
     56  CB        60.4130   72.0000  -94.7070 C.3   143  SER143      0.2116
     57  OG        59.6600   73.0140  -95.3400 O.3   143  SER143     -0.2180
     58  N         59.0740   71.3520  -88.1240 N.3   157  THR157     -0.1203
     59  CA        58.4830   72.3860  -88.9720 C.3   157  THR157      0.1994
     60  C         57.7010   71.8360  -90.1600 C.2   157  THR157      0.2619
     61  O         58.2450   71.1020  -90.9820 O.2   157  THR157     -0.2717
     62  CB        59.5720   73.3270  -89.4930 C.3   157  THR157      0.1784
     63  OG1       60.3230   73.8310  -88.3830 O.3   157  THR157     -0.2211
     64  CG2       58.9540   74.4920  -90.2540 C.3   157  THR157      0.0376
     65  N         56.4260   72.2160  -90.2580 N.am  158  SER158     -0.1937
     66  CA        55.5680   71.7440  -91.3380 C.3   158  SER158      0.2055
     67  C         55.3130   72.7950  -92.4200 C.2   158  SER158      0.2644
     68  O         55.3470   72.4950  -93.6160 O.2   158  SER158     -0.2714
     69  CB        54.2280   71.2680  -90.7680 C.3   158  SER158      0.2130
     70  OG        53.3270   70.9220  -91.8140 O.3   158  SER158     -0.2179
     71  N         55.0430   74.0220  -91.9980 N.am  159  GLY159     -0.1939
     72  CA        54.7810   75.0790  -92.9560 C.3   159  GLY159      0.2014
     73  C         54.2310   76.3090  -92.2670 C.2   159  GLY159      0.2639
     74  O         54.2140   76.3830  -91.0410 O.2   159  GLY159     -0.2714
     75  N         53.7820   77.2820  -93.0490 N.am  160  GLY160     -0.1939
     76  CA        53.2440   78.4870  -92.4490 C.3   160  GLY160      0.2014
     77  C         53.0980   79.6220  -93.4330 C.2   160  GLY160      0.2640
     78  O         53.0700   79.4090  -94.6440 O.2   160  GLY160     -0.2714
     79  N         53.0100   80.8370  -92.9050 N.am  161  SER161     -0.1935
     80  CA        52.8540   82.0220  -93.7340 C.3   161  SER161      0.2055
     81  C         53.8820   83.0780  -93.3610 C.2   161  SER161      0.2643
     82  O         54.4530   83.0430  -92.2710 O.2   161  SER161     -0.2714
     83  CB        51.4490   82.5920  -93.5550 C.3   161  SER161      0.2130
     84  OG        51.2160   82.9140  -92.1920 O.3   161  SER161     -0.2179
     85  N         54.1090   84.0170  -94.2710 N.am  162  GLY162     -0.1954
     86  CA        55.0670   85.0760  -94.0220 C.3   162  GLY162      0.1869
     87  C         56.5020   84.6270  -94.2040 C.2   162  GLY162      0.2309
     88  O         56.7760   83.6260  -94.8710 O.2   162  GLY162     -0.2863
@<TRIPOS>BOND
     1    14    13    2
     2    13    12    1
     3    41    42    1
     4    41    38    1
     5     4     3    2
     6    42    43    1
     7    12    15    1
     8    12    11    1
     9     3     2    1
    10    15    16    1
    11    43    37    1
    12    38    39    1
    13    38    37    1
    14    40    39    2
    15     2     5    1
    16     2     1    1
    17     5     6    1
    18     8     6   ar
    19     8    10   ar
    20    37    30   am
    21     6     7   ar
    22    16    18   ar
    23    16    17   ar
    24    10     9   ar
    25    35    34   ar
    26    18    20   ar
    27    17    19   ar
    28    30    31    2
    29    30    29    1
    30     7     9   ar
    31    57    56    1
    32    32    33    1
    33    32    29    1
    34    34    33    1
    35    34    36   ar
    36    29    28    1
    37    88    87    2
    38    56    53    1
    39    78    77    2
    40    20    21   ar
    41    19    21   ar
    42    44    45    1
    43    85    86    1
    44    85    81   am
    45    87    86    1
    46    21    22    1
    47    80    83    1
    48    80    81    1
    49    80    79    1
    50    68    67    2
    51    83    84    1
    52    52    53    1
    53    52    46   am
    54    28    25   am
    55    77    79   am
    56    77    76    1
    57    81    82    2
    58    53    54    1
    59    26    25    2
    60    75    76    1
    61    75    73   am
    62    55    54    2
    63    72    73    1
    64    72    71    1
    65    45    46    1
    66    45    48    1
    67    25    24    1
    68    46    47    2
    69    67    71   am
    70    67    66    1
    71    73    74    2
    72    50    49   ar
    73    48    49    1
    74    49    51   ar
    75    70    69    1
    76    66    69    1
    77    66    65    1
    78    24    27    1
    79    24    23    1
    80    61    60    2
    81    65    60   am
    82    64    62    1
    83    60    59    1
    84    62    59    1
    85    62    63    1
    86    59    58    1
