@<TRIPOS>MOLECULE
tmp/2ounA00.pdb
 165 157 0 0 0
SMALL
GASTEIGER

@<TRIPOS>ATOM
      1  N         14.9020   14.5660   47.0770 N.3    78  TYR78      -0.1227
      2  CA        13.7200   13.9410   47.6610 C.3    78  TYR78       0.1736
      3  C         13.8290   12.4990   48.1500 C.2    78  TYR78       0.2595
      4  O         13.3990   12.1980   49.2680 O.2    78  TYR78      -0.2718
      5  CB        12.5640   14.0330   46.6600 C.3    78  TYR78       0.0548
      6  CG        11.2770   13.4140   47.1530 C.ar   78  TYR78      -0.0200
      7  CD1       10.5330   14.0090   48.1700 C.ar   78  TYR78      -0.0009
      8  CD2       10.8240   12.2130   46.6190 C.ar   78  TYR78      -0.0009
      9  CE1        9.3560   13.4130   48.6490 C.ar   78  TYR78       0.0417
     10  CE2        9.6580   11.6080   47.0870 C.ar   78  TYR78       0.0417
     11  CZ         8.9300   12.2110   48.0960 C.ar   78  TYR78       0.1957
     12  OH         7.7760   11.6100   48.5320 O.3    78  TYR78      -0.2866
     13  N         14.3790   11.6100   47.3250 N.am   79  HIS79      -0.1975
     14  CA        14.4800   10.1940   47.7130 C.3    79  HIS79       0.1656
     15  C         15.7010    9.9860   48.5830 C.2    79  HIS79       0.2291
     16  O         16.6210    9.2510   48.2270 O.2    79  HIS79      -0.2864
     17  CB        14.5570    9.2980   46.4690 C.3    79  HIS79       0.0771
     18  CG        13.3080    9.3010   45.6440 C.ar   79  HIS79       0.0820
     19  ND1       13.1180   10.1650   44.5870 N.ar   79  HIS79      -0.2267
     20  CD2       12.1770    8.5640   45.7360 C.ar   79  HIS79       0.1154
     21  CE1       11.9210    9.9600   44.0660 C.ar   79  HIS79       0.1986
     22  NE2       11.3310    8.9940   44.7440 N.ar   79  HIS79      -0.2212
     23  N         13.1600   11.2120   53.6310 N.3    83  HIS83      -0.1241
     24  CA        12.0090   10.5330   53.0490 C.3    83  HIS83       0.1621
     25  C         11.8160    9.1610   53.7030 C.2    83  HIS83       0.2264
     26  O         10.7030    8.7950   54.0700 O.2    83  HIS83      -0.2867
     27  CB        12.2130   10.3680   51.5420 C.3    83  HIS83       0.0745
     28  CG        11.1460    9.5590   50.8680 C.ar   83  HIS83       0.0817
     29  ND1        9.8180    9.9290   50.8670 N.ar   83  HIS83      -0.2268
     30  CD2       11.2170    8.4090   50.1550 C.ar   83  HIS83       0.1154
     31  CE1        9.1150    9.0430   50.1830 C.ar   83  HIS83       0.1986
     32  NE2        9.9410    8.1090   49.7400 N.ar   83  HIS83      -0.2212
     33  N         12.9380    1.1930   51.7640 N.3   117  HIS117     -0.1226
     34  CA        12.2940    1.1330   50.4560 C.3   117  HIS117      0.1752
     35  C         12.8730    1.9190   49.2870 C.2   117  HIS117      0.2596
     36  O         12.5970    1.5730   48.1330 O.2   117  HIS117     -0.2718
     37  CB        10.7960    1.4120   50.5980 C.3   117  HIS117      0.0759
     38  CG        10.4400    2.8570   50.4930 C.ar  117  HIS117      0.0818
     39  ND1       10.5900    3.7400   51.5400 N.ar  117  HIS117     -0.2268
     40  CD2        9.9980    3.5840   49.4410 C.ar  117  HIS117      0.1154
     41  CE1       10.2600    4.9550   51.1320 C.ar  117  HIS117      0.1986
     42  NE2        9.8990    4.8880   49.8620 N.ar  117  HIS117     -0.2212
     43  N         13.6580    2.9620   49.5520 N.am  118  ASP118     -0.1974
     44  CA        14.2490    3.7240   48.4490 C.3   118  ASP118      0.1709
     45  C         15.7740    3.7320   48.5420 C.2   118  ASP118      0.2293
     46  O         16.4270    4.6320   48.0310 O.2   118  ASP118     -0.2864
     47  CB        13.7370    5.1770   48.4270 C.3   118  ASP118      0.1436
     48  CG        12.4360    5.3370   47.6490 C.2   118  ASP118      0.3671
     49  OD1       12.2180    4.5670   46.6980 O.co2 118  ASP118     -0.2456
     50  OD2       11.6350    6.2470   47.9640 O.co2 118  ASP118     -0.2456
     51  N         18.6750    5.2800   45.9890 N.3   121  HIS121     -0.1241
     52  CA        17.9620    5.9260   44.8910 C.3   121  HIS121      0.1621
     53  C         18.9090    7.0110   44.3690 C.2   121  HIS121      0.2264
     54  O         19.5670    7.6920   45.1600 O.2   121  HIS121     -0.2867
     55  CB        16.6690    6.5550   45.4130 C.3   121  HIS121      0.0745
     56  CG        15.6500    6.8240   44.3490 C.ar  121  HIS121      0.0817
     57  ND1       15.8170    7.7910   43.3800 N.ar  121  HIS121     -0.2268
     58  CD2       14.4400    6.2630   44.1170 C.ar  121  HIS121      0.1154
     59  CE1       14.7530    7.8160   42.5980 C.ar  121  HIS121      0.1986
     60  NE2       13.9010    6.9000   43.0230 N.ar  121  HIS121     -0.2212
     61  N         12.7940   -0.5810   42.4200 N.3   146  GLU146     -0.1245
     62  CA        12.2970   -1.2900   43.6030 C.3   146  GLU146      0.1567
     63  C         13.0050   -2.6330   43.8190 C.2   146  GLU146      0.2260
     64  O         13.2990   -3.0130   44.9570 O.2   146  GLU146     -0.2867
     65  CB        10.7820   -1.4900   43.4930 C.3   146  GLU146      0.0388
     66  CG         9.9720   -0.1840   43.5010 C.3   146  GLU146      0.1160
     67  CD        10.0260    0.5870   42.1790 C.2   146  GLU146      0.3649
     68  OE1       10.1710   -0.0490   41.1090 O.co2 146  GLU146     -0.2457
     69  OE2        9.8990    1.8310   42.2090 O.co2 146  GLU146     -0.2457
     70  N          5.9090   -0.5250   46.4020 N.3   187  THR187     -0.1218
     71  CA         6.1130    0.9230   46.3150 C.3   187  THR187      0.1862
     72  C          6.2890    1.4080   44.8760 C.2   187  THR187      0.2287
     73  O          6.4790    2.5960   44.6370 O.2   187  THR187     -0.2866
     74  CB         7.3160    1.4230   47.1780 C.3   187  THR187      0.1770
     75  OG1        8.5400    0.8180   46.7400 O.3   187  THR187     -0.2211
     76  CG2        7.0640    1.0870   48.6520 C.3   187  THR187      0.0375
     77  N          4.7310    2.6920   42.0410 N.3   189  LEU189     -0.1245
     78  CA         3.3970    3.2300   41.7590 C.3   189  LEU189      0.1561
     79  C          2.7090    2.5930   40.5590 C.2   189  LEU189      0.2260
     80  O          1.4870    2.5940   40.4680 O.2   189  LEU189     -0.2867
     81  CB         3.4380    4.7440   41.5460 C.3   189  LEU189      0.0270
     82  CG         3.3260    5.6010   42.8000 C.3   189  LEU189      0.0019
     83  CD1        3.2840    7.0650   42.3580 C.3   189  LEU189      0.0001
     84  CD2        2.0560    5.2450   43.6090 C.3   189  LEU189      0.0001
     85  N          4.3020    5.8810   51.4760 N.3   228  ASP228     -0.1225
     86  CA         5.2450    6.4650   50.5150 C.3   228  ASP228      0.1805
     87  C          4.7900    7.8560   50.0450 C.2   228  ASP228      0.2597
     88  O          5.6200    8.7280   49.7760 O.2   228  ASP228     -0.2718
     89  CB         5.3540    5.5290   49.3040 C.3   228  ASP228      0.1424
     90  CG         6.7090    5.5890   48.5910 C.2   228  ASP228      0.3668
     91  OD1        7.6470    6.3600   48.9650 O.co2 228  ASP228     -0.2456
     92  OD2        6.8200    4.7920   47.6250 O.co2 228  ASP228     -0.2456
     93  N          3.4780    8.0580   49.9420 N.am  229  LEU229     -0.1979
     94  CA         2.9330    9.3350   49.4740 C.3   229  LEU229      0.1596
     95  C          2.4920   10.2670   50.5920 C.2   229  LEU229      0.2287
     96  O          1.9370   11.3310   50.3140 O.2   229  LEU229     -0.2864
     97  CB         1.7090    9.0900   48.5830 C.3   229  LEU229      0.0297
     98  CG         1.8750    8.1280   47.4030 C.3   229  LEU229      0.0022
     99  CD1        0.5620    8.0150   46.6160 C.3   229  LEU229      0.0001
    100  CD2        2.9910    8.6380   46.5120 C.3   229  LEU229      0.0001
    101  N          3.5320   12.6620   52.2560 N.3   231  SER231     -0.1202
    102  CA         3.8130   14.0930   52.3140 C.3   231  SER231      0.2020
    103  C          2.5190   14.8400   51.9850 C.2   231  SER231      0.2618
    104  O          2.3300   15.9760   52.4240 O.2   231  SER231     -0.2717
    105  CB         4.8860   14.5010   51.2990 C.3   231  SER231      0.2103
    106  OG         4.3280   14.6700   49.9970 O.3   231  SER231     -0.2182
    107  N          1.6190   14.2060   51.2300 N.am  232  VAL232     -0.1979
    108  CA         0.3640   14.8580   50.8620 C.3   232  VAL232      0.1595
    109  C         -0.6700   14.8220   51.9840 C.2   232  VAL232      0.2287
    110  O         -1.7870   15.3020   51.8090 O.2   232  VAL232     -0.2864
    111  CB        -0.2730   14.2470   49.5600 C.3   232  VAL232      0.0276
    112  CG1        0.7550   14.2390   48.4410 C.3   232  VAL232      0.0022
    113  CG2       -0.8140   12.8400   49.8260 C.3   232  VAL232      0.0022
    114  N          6.8380   19.1900   48.0630 N.3   243  ALA243     -0.1245
    115  CA         6.6010   19.1620   46.6250 C.3   243  ALA243      0.1562
    116  C          7.7760   19.8530   45.9220 C.2   243  ALA243      0.2260
    117  O          8.1700   19.4460   44.8330 O.2   243  ALA243     -0.2867
    118  CB         5.2720   19.8600   46.2780 C.3   243  ALA243      0.0290
    119  N         10.4100   17.2210   45.5010 N.3   246  ILE246     -0.1245
    120  CA         9.9990   16.2180   44.5170 C.3   246  ILE246      0.1561
    121  C         10.2710   16.7570   43.1120 C.2   246  ILE246      0.2260
    122  O         10.8710   16.0810   42.2690 O.2   246  ILE246     -0.2867
    123  CB         8.4800   15.9000   44.6660 C.3   246  ILE246      0.0252
    124  CG1        8.2420   15.1340   45.9720 C.3   246  ILE246      0.0019
    125  CG2        7.9700   15.1230   43.4680 C.3   246  ILE246      0.0019
    126  CD1        6.7710   14.9660   46.3410 C.3   246  ILE246      0.0001
    127  N         12.5220   15.8110   39.7000 N.3   250  PHE250     -0.1241
    128  CA        11.8690   15.6650   38.4030 C.3   250  PHE250      0.1605
    129  C         12.5720   16.5270   37.3580 C.2   250  PHE250      0.2264
    130  O         12.8800   16.0640   36.2600 O.2   250  PHE250     -0.2867
    131  CB        10.4020   16.1110   38.4450 C.3   250  PHE250      0.0534
    132  CG         9.4690   15.1490   39.1360 C.ar  250  PHE250     -0.0203
    133  CD1        9.7570   13.7950   39.2120 C.ar  250  PHE250     -0.0042
    134  CD2        8.2660   15.6100   39.6670 C.ar  250  PHE250     -0.0042
    135  CE1        8.8510   12.9060   39.8130 C.ar  250  PHE250     -0.0003
    136  CE2        7.3600   14.7420   40.2600 C.ar  250  PHE250     -0.0003
    137  CZ         7.6530   13.3840   40.3330 C.ar  250  PHE250     -0.0000
    138  N          5.6980   17.4750   33.6290 N.3   267  MET267     -0.1245
    139  CA         6.0140   17.3610   35.0480 C.3   267  MET267      0.1570
    140  C          7.5250   17.3850   35.3250 C.2   267  MET267      0.2261
    141  O          7.9550   17.7730   36.4090 O.2   267  MET267     -0.2867
    142  CB         5.3910   16.0780   35.6170 C.3   267  MET267      0.0387
    143  CG         5.5120   15.9510   37.1320 C.3   267  MET267      0.0595
    144  SD         4.6840   14.4760   37.7940 S.3   267  MET267     -0.1393
    145  CE         2.9990   15.0430   37.8690 C.3   267  MET267      0.0692
    146  N         -0.4090   18.6490   40.0280 N.3   280  GLN280     -0.1245
    147  CA        -0.6820   18.1400   41.3710 C.3   280  GLN280      0.1566
    148  C         -2.1530   17.7510   41.4900 C.2   280  GLN280      0.2260
    149  O         -2.4850   16.7130   42.0700 O.2   280  GLN280     -0.2867
    150  CB        -0.3190   19.1910   42.4270 C.3   280  GLN280      0.0367
    151  CG         1.1850   19.3380   42.6170 C.3   280  GLN280      0.0905
    152  CD         1.8250   18.0310   43.0480 C.2   280  GLN280      0.2608
    153  OE1        1.6450   17.5860   44.1820 O.2   280  GLN280     -0.2717
    154  NE2        2.5630   17.3950   42.1350 N.am  280  GLN280     -0.0878
    155  N         -2.4630   14.4500   40.0460 N.3   283  PHE283     -0.1241
    156  CA        -1.8760   13.3980   40.8710 C.3   283  PHE283      0.1605
    157  C         -2.7930   13.0630   42.0490 C.2   283  PHE283      0.2264
    158  O         -2.9810   11.8830   42.3810 O.2   283  PHE283     -0.2867
    159  CB        -0.5000   13.8270   41.3910 C.3   283  PHE283      0.0534
    160  CG         0.2160   12.7510   42.1500 C.ar  283  PHE283     -0.0203
    161  CD1        0.8670   11.7130   41.4770 C.ar  283  PHE283     -0.0042
    162  CD2        0.2100   12.7520   43.5430 C.ar  283  PHE283     -0.0042
    163  CE1        1.4990   10.6920   42.1870 C.ar  283  PHE283     -0.0003
    164  CE2        0.8360   11.7360   44.2600 C.ar  283  PHE283     -0.0003
    165  CZ         1.4800   10.7070   43.5810 C.ar  283  PHE283     -0.0000
@<TRIPOS>BOND
     1   138   139    1
     2   139   140    1
     3   139   142    1
     4   140   141    2
     5   142   143    1
     6   130   129    2
     7   143   144    1
     8   129   128    1
     9   144   145    1
    10   128   131    1
    11   128   127    1
    12   131   132    1
    13   132   133   ar
    14   132   134   ar
    15   133   135   ar
    16   134   136   ar
    17   135   137   ar
    18   146   147    1
    19   155   156    1
    20   136   137   ar
    21    80    79    2
    22    79    78    1
    23   156   159    1
    24   156   157    1
    25    68    67   ar
    26   147   148    1
    27   147   150    1
    28   159   160    1
    29   161   160   ar
    30   161   163   ar
    31   148   149    2
    32    81    78    1
    33    81    82    1
    34    78    77    1
    35   157   158    2
    36   154   152   am
    37   160   162   ar
    38    67    69   ar
    39    67    66    1
    40   163   165   ar
    41   122   121    2
    42    83    82    1
    43    61    62    1
    44   150   151    1
    45    59    60   ar
    46    59    57   ar
    47   151   152    1
    48    82    84    1
    49    60    58   ar
    50   152   153    2
    51   121   120    1
    52    57    56   ar
    53   125   123    1
    54    65    66    1
    55    65    62    1
    56   162   164   ar
    57   165   164   ar
    58    62    63    1
    59    63    64    2
    60    21    19   ar
    61    21    22   ar
    62    58    56   ar
    63    56    55    1
    64    53    52    1
    65    53    54    2
    66   120   123    1
    67   120   119    1
    68    19    18   ar
    69    73    72    2
    70   123   124    1
    71    22    20   ar
    72   117   116    2
    73    72    71    1
    74    52    55    1
    75    52    51    1
    76    18    20   ar
    77    18    17    1
    78   116   115    1
    79   124   126    1
    80   118   115    1
    81    71    70    1
    82    71    74    1
    83    17    14    1
    84   100    98    1
    85    99    98    1
    86     8    10   ar
    87     8     6   ar
    88   115   114    1
    89     5     6    1
    90     5     2    1
    91    49    48   ar
    92    75    74    1
    93     1     2    1
    94    10    11   ar
    95     6     7   ar
    96    74    76    1
    97    13    14    1
    98    13     3   am
    99    98    97    1
   100    92    90   ar
   101    48    50   ar
   102    48    47    1
   103     2     3    1
   104    14    15    1
   105    46    45    2
   106    11    12    1
   107    11     9   ar
   108    36    35    2
   109     3     4    2
   110     7     9   ar
   111    16    15    2
   112    47    44    1
   113   112   111    1
   114    44    45    1
   115    44    43    1
   116    97    94    1
   117    90    91   ar
   118    90    89    1
   119    35    43   am
   120    35    34    1
   121    89    86    1
   122    40    42   ar
   123    40    38   ar
   124    94    93    1
   125    94    95    1
   126   111   113    1
   127   111   108    1
   128    32    30   ar
   129    32    31   ar
   130    88    87    2
   131    42    41   ar
   132    93    87   am
   133   106   105    1
   134    87    86    1
   135    30    28   ar
   136    31    29   ar
   137    96    95    2
   138    34    37    1
   139    34    33    1
   140    38    37    1
   141    38    39   ar
   142    86    85    1
   143   108   107    1
   144   108   109    1
   145    29    28   ar
   146    28    27    1
   147    41    39   ar
   148   107   103   am
   149   105   102    1
   150    27    24    1
   151   110   109    2
   152   103   102    1
   153   103   104    2
   154   101   102    1
   155    24    23    1
   156    24    25    1
   157    25    26    2
