@<TRIPOS>MOLECULE
tmp/2ouqA00.pdb
 193 187 0 0 0
SMALL
GASTEIGER

@<TRIPOS>ATOM
      1  N         14.7820   14.6790   47.8650 N.3    78  TYR78      -0.1227
      2  CA        13.5640   14.0470   48.3690 C.3    78  TYR78       0.1736
      3  C         13.6640   12.6080   48.8670 C.2    78  TYR78       0.2595
      4  O         13.1990   12.3000   49.9640 O.2    78  TYR78      -0.2718
      5  CB        12.4670   14.1150   47.3020 C.3    78  TYR78       0.0548
      6  CG        11.1620   13.4920   47.7430 C.ar   78  TYR78      -0.0200
      7  CD1       10.4260   14.0440   48.7890 C.ar   78  TYR78      -0.0009
      8  CD2       10.6810   12.3310   47.1380 C.ar   78  TYR78      -0.0009
      9  CE1        9.2410   13.4520   49.2280 C.ar   78  TYR78       0.0417
     10  CE2        9.4970   11.7330   47.5660 C.ar   78  TYR78       0.0417
     11  CZ         8.7830   12.2980   48.6140 C.ar   78  TYR78       0.1957
     12  OH         7.6270   11.6970   49.0590 O.3    78  TYR78      -0.2866
     13  N         14.2320   11.7180   48.0600 N.am   79  HIS79      -0.1975
     14  CA        14.3380   10.3180   48.4620 C.3    79  HIS79       0.1656
     15  C         15.5050   10.1440   49.4220 C.2    79  HIS79       0.2291
     16  O         16.4820    9.4630   49.1200 O.2    79  HIS79      -0.2864
     17  CB        14.5120    9.4210   47.2300 C.3    79  HIS79       0.0771
     18  CG        13.3520    9.4680   46.2810 C.ar   79  HIS79       0.0820
     19  ND1       13.3200   10.3000   45.1820 N.ar   79  HIS79      -0.2267
     20  CD2       12.1670    8.8110   46.2880 C.ar   79  HIS79       0.1154
     21  CE1       12.1680   10.1550   44.5520 C.ar   79  HIS79       0.1986
     22  NE2       11.4490    9.2570   45.2030 N.ar   79  HIS79      -0.2212
     23  N         12.7010   11.3330   54.3610 N.3    83  HIS83      -0.1241
     24  CA        11.5490   10.6690   53.7410 C.3    83  HIS83       0.1621
     25  C         11.3510    9.3020   54.3820 C.2    83  HIS83       0.2264
     26  O         10.2300    8.9140   54.7270 O.2    83  HIS83      -0.2867
     27  CB        11.7880   10.5280   52.2230 C.3    83  HIS83       0.0745
     28  CG        10.7680    9.6920   51.4980 C.ar   83  HIS83       0.0817
     29  ND1        9.4250    9.9970   51.4750 N.ar   83  HIS83      -0.2268
     30  CD2       10.9100    8.5740   50.7430 C.ar   83  HIS83       0.1154
     31  CE1        8.7820    9.1040   50.7390 C.ar   83  HIS83       0.1986
     32  NE2        9.6610    8.2280   50.2830 N.ar   83  HIS83      -0.2212
     33  N         12.6040    1.4040   52.5090 N.3   117  HIS117     -0.1226
     34  CA        11.9970    1.3550   51.1800 C.3   117  HIS117      0.1752
     35  C         12.6110    2.1410   50.0240 C.2   117  HIS117      0.2596
     36  O         12.3470    1.8120   48.8710 O.2   117  HIS117     -0.2718
     37  CB        10.5000    1.6760   51.2610 C.3   117  HIS117      0.0759
     38  CG        10.1870    3.1350   51.1640 C.ar  117  HIS117      0.0818
     39  ND1       10.3910    4.0150   52.2060 N.ar  117  HIS117     -0.2268
     40  CD2        9.7040    3.8740   50.1360 C.ar  117  HIS117      0.1154
     41  CE1       10.0460    5.2330   51.8210 C.ar  117  HIS117      0.1986
     42  NE2        9.6270    5.1740   50.5700 N.ar  117  HIS117     -0.2212
     43  N         13.4090    3.1650   50.3110 N.am  118  ASP118     -0.1974
     44  CA        14.0510    3.9610   49.2530 C.3   118  ASP118      0.1709
     45  C         15.5620    3.9560   49.4440 C.2   118  ASP118      0.2293
     46  O         16.2570    4.8620   49.0020 O.2   118  ASP118     -0.2864
     47  CB        13.5480    5.4170   49.2720 C.3   118  ASP118      0.1436
     48  CG        12.2920    5.6150   48.4360 C.2   118  ASP118      0.3671
     49  OD1       12.1820    4.9180   47.4140 O.co2 118  ASP118     -0.2456
     50  OD2       11.4330    6.4620   48.7810 O.co2 118  ASP118     -0.2456
     51  N         18.7150    5.3980   47.1070 N.3   121  HIS121     -0.1241
     52  CA        18.0730    6.0100   45.9440 C.3   121  HIS121      0.1621
     53  C         19.0570    7.0470   45.4070 C.2   121  HIS121      0.2264
     54  O         19.6390    7.8030   46.1830 O.2   121  HIS121     -0.2867
     55  CB        16.7670    6.6880   46.3620 C.3   121  HIS121      0.0745
     56  CG        15.8430    6.9780   45.2220 C.ar  121  HIS121      0.0817
     57  ND1       16.1210    7.9220   44.2570 N.ar  121  HIS121     -0.2268
     58  CD2       14.6390    6.4500   44.8950 C.ar  121  HIS121      0.1154
     59  CE1       15.1280    7.9660   43.3870 C.ar  121  HIS121      0.1986
     60  NE2       14.2150    7.0830   43.7510 N.ar  121  HIS121     -0.2212
     61  N         12.9360   -0.3830   43.2720 N.3   146  GLU146     -0.1245
     62  CA        12.3690   -1.1000   44.4120 C.3   146  GLU146      0.1567
     63  C         13.1060   -2.4180   44.6560 C.2   146  GLU146      0.2260
     64  O         13.4010   -2.7770   45.7980 O.2   146  GLU146     -0.2867
     65  CB        10.8770   -1.3520   44.1880 C.3   146  GLU146      0.0388
     66  CG        10.0190   -0.0790   44.0660 C.3   146  GLU146      0.1160
     67  CD        10.2890    0.7260   42.7930 C.2   146  GLU146      0.3649
     68  OE1       10.7140    0.1240   41.7880 O.co2 146  GLU146     -0.2457
     69  OE2       10.0570    1.9550   42.7900 O.co2 146  GLU146     -0.2457
     70  N          5.8930   -0.3890   46.7590 N.3   187  THR187     -0.1218
     71  CA         6.0320    1.0610   46.6870 C.3   187  THR187      0.1862
     72  C          6.2890    1.5500   45.2670 C.2   187  THR187      0.2287
     73  O          6.4790    2.7440   45.0370 O.2   187  THR187     -0.2866
     74  CB         7.1320    1.6120   47.6410 C.3   187  THR187      0.1770
     75  OG1        8.3940    1.0090   47.3470 O.3   187  THR187     -0.2211
     76  CG2        6.7520    1.3370   49.0960 C.3   187  THR187      0.0375
     77  N          4.9260    2.7570   42.3320 N.3   189  LEU189     -0.1245
     78  CA         3.6270    3.3030   41.9710 C.3   189  LEU189      0.1561
     79  C          2.9810    2.6300   40.7700 C.2   189  LEU189      0.2260
     80  O          1.7590    2.6000   40.6670 O.2   189  LEU189     -0.2867
     81  CB         3.7190    4.8150   41.7290 C.3   189  LEU189      0.0270
     82  CG         3.5630    5.6660   42.9900 C.3   189  LEU189      0.0019
     83  CD1        3.7400    7.1480   42.6640 C.3   189  LEU189      0.0001
     84  CD2        2.1870    5.4080   43.5930 C.3   189  LEU189      0.0001
     85  N          4.0120    5.9280   51.8520 N.3   228  ASP228     -0.1225
     86  CA         4.9750    6.5260   50.9280 C.3   228  ASP228      0.1805
     87  C          4.5510    7.9260   50.4760 C.2   228  ASP228      0.2597
     88  O          5.3790    8.8260   50.3470 O.2   228  ASP228     -0.2718
     89  CB         5.1310    5.6140   49.7080 C.3   228  ASP228      0.1424
     90  CG         6.4870    5.7610   49.0090 C.2   228  ASP228      0.3668
     91  OD1        7.3670    6.5650   49.4260 O.co2 228  ASP228     -0.2456
     92  OD2        6.6610    5.0290   48.0170 O.co2 228  ASP228     -0.2456
     93  N          3.2550    8.1130   50.2610 N.am  229  LEU229     -0.1979
     94  CA         2.7290    9.3960   49.7940 C.3   229  LEU229      0.1596
     95  C          2.2350   10.3300   50.8890 C.2   229  LEU229      0.2287
     96  O          1.7880   11.4350   50.5990 O.2   229  LEU229     -0.2864
     97  CB         1.5570    9.1540   48.8410 C.3   229  LEU229      0.0297
     98  CG         1.7830    8.1800   47.6870 C.3   229  LEU229      0.0022
     99  CD1        0.4910    8.0440   46.8700 C.3   229  LEU229      0.0001
    100  CD2        2.9150    8.7000   46.8250 C.3   229  LEU229      0.0001
    101  N          3.1270   12.6400   52.5750 N.3   231  SER231     -0.1202
    102  CA         3.4480   14.0590   52.6790 C.3   231  SER231      0.2020
    103  C          2.2250   14.8660   52.2600 C.2   231  SER231      0.2618
    104  O          2.0740   16.0180   52.6770 O.2   231  SER231     -0.2717
    105  CB         4.6560   14.4420   51.8160 C.3   231  SER231      0.2103
    106  OG         4.2960   14.6470   50.4620 O.3   231  SER231     -0.2182
    107  N          1.3430   14.2620   51.4560 N.am  232  VAL232     -0.1979
    108  CA         0.1220   14.9460   51.0120 C.3   232  VAL232      0.1595
    109  C         -0.9770   14.9190   52.0860 C.2   232  VAL232      0.2287
    110  O         -2.0890   15.4160   51.8600 O.2   232  VAL232     -0.2864
    111  CB        -0.4670   14.3180   49.7100 C.3   232  VAL232      0.0276
    112  CG1        0.5840   14.3180   48.5920 C.3   232  VAL232      0.0022
    113  CG2       -0.9740   12.8980   49.9880 C.3   232  VAL232      0.0022
    114  N          6.6170   19.2560   48.6320 N.3   243  ALA243     -0.1245
    115  CA         6.3930   19.2520   47.1920 C.3   243  ALA243      0.1562
    116  C          7.5780   19.8880   46.4600 C.2   243  ALA243      0.2260
    117  O          7.9980   19.4060   45.4150 O.2   243  ALA243     -0.2867
    118  CB         5.1090   19.9990   46.8600 C.3   243  ALA243      0.0290
    119  N         10.2710   17.3300   46.2120 N.3   246  ILE246     -0.1231
    120  CA         9.9340   16.3160   45.2260 C.3   246  ILE246      0.1692
    121  C         10.2920   16.8420   43.8350 C.2   246  ILE246      0.2592
    122  O         10.9440   16.1540   43.0470 O.2   246  ILE246     -0.2718
    123  CB         8.4170   15.9880   45.2670 C.3   246  ILE246      0.0266
    124  CG1        8.0450   15.3850   46.6240 C.3   246  ILE246      0.0019
    125  CG2        8.0630   15.0170   44.1650 C.3   246  ILE246      0.0020
    126  CD1        6.5360   15.2630   46.8520 C.3   246  ILE246      0.0001
    127  N          9.8730   18.0700   43.5370 N.am  247  TYR247     -0.1976
    128  CA        10.1540   18.6360   42.2250 C.3   247  TYR247      0.1639
    129  C         11.6220   18.9640   41.9910 C.2   247  TYR247      0.2290
    130  O         12.0840   18.9550   40.8540 O.2   247  TYR247     -0.2864
    131  CB         9.2600   19.8580   41.9560 C.3   247  TYR247      0.0560
    132  CG         7.8760   19.4630   41.4700 C.ar  247  TYR247     -0.0198
    133  CD1        6.8840   19.0690   42.3670 C.ar  247  TYR247     -0.0009
    134  CD2        7.5840   19.4030   40.1060 C.ar  247  TYR247     -0.0009
    135  CE1        5.6350   18.6180   41.9190 C.ar  247  TYR247      0.0417
    136  CE2        6.3370   18.9490   39.6470 C.ar  247  TYR247      0.0417
    137  CZ         5.3720   18.5570   40.5590 C.ar  247  TYR247      0.1957
    138  OH         4.1530   18.0760   40.1210 O.3   247  TYR247     -0.2866
    139  N         12.7680   15.9120   40.5150 N.3   250  PHE250     -0.1241
    140  CA        12.1950   15.7580   39.1780 C.3   250  PHE250      0.1605
    141  C         12.9350   16.6410   38.1650 C.2   250  PHE250      0.2264
    142  O         13.3500   16.1750   37.1010 O.2   250  PHE250     -0.2867
    143  CB        10.7130   16.1470   39.1530 C.3   250  PHE250      0.0534
    144  CG         9.8010   15.1760   39.8460 C.ar  250  PHE250     -0.0203
    145  CD1       10.1510   13.8370   39.9910 C.ar  250  PHE250     -0.0042
    146  CD2        8.5580   15.6000   40.3140 C.ar  250  PHE250     -0.0042
    147  CE1        9.2770   12.9330   40.5910 C.ar  250  PHE250     -0.0003
    148  CE2        7.6780   14.7040   40.9150 C.ar  250  PHE250     -0.0003
    149  CZ         8.0400   13.3650   41.0530 C.ar  250  PHE250     -0.0000
    150  N          6.4080   17.5020   33.7310 N.3   267  MET267     -0.1245
    151  CA         6.6050   17.4360   35.1760 C.3   267  MET267      0.1570
    152  C          8.0770   17.5180   35.5810 C.2   267  MET267      0.2261
    153  O          8.4010   18.0580   36.6370 O.2   267  MET267     -0.2867
    154  CB         5.9800   16.1530   35.7360 C.3   267  MET267      0.0387
    155  CG         5.9650   16.0790   37.2610 C.3   267  MET267      0.0595
    156  SD         5.3960   14.4720   37.8580 S.3   267  MET267     -0.1393
    157  CE         6.9010   13.5100   37.6850 C.3   267  MET267      0.0692
    158  N         -0.6640   19.7830   37.5240 N.3   279  GLY279     -0.1210
    159  CA        -0.1050   18.4420   37.5950 C.3   279  GLY279      0.1956
    160  C         -0.3620   17.7950   38.9420 C.2   279  GLY279      0.2611
    161  O         -0.5970   16.5870   39.0350 O.2   279  GLY279     -0.2717
    162  N         -0.3090   18.5990   39.9970 N.am  280  GLN280     -0.1979
    163  CA        -0.5550   18.0930   41.3380 C.3   280  GLN280      0.1601
    164  C         -2.0190   17.7130   41.4780 C.2   280  GLN280      0.2287
    165  O         -2.3530   16.7240   42.1200 O.2   280  GLN280     -0.2864
    166  CB        -0.1760   19.1480   42.3770 C.3   280  GLN280      0.0394
    167  CG         1.3230   19.2710   42.5840 C.3   280  GLN280      0.0908
    168  CD         1.9260   18.0110   43.1790 C.2   280  GLN280      0.2608
    169  OE1        1.8370   17.7800   44.3810 O.2   280  GLN280     -0.2717
    170  NE2        2.5310   17.1850   42.3370 N.am  280  GLN280     -0.0878
    171  N         -2.3370   14.3930   40.0030 N.3   283  PHE283     -0.1227
    172  CA        -1.7520   13.3610   40.8550 C.3   283  PHE283      0.1736
    173  C         -2.6770   13.0370   42.0160 C.2   283  PHE283      0.2595
    174  O         -2.8360   11.8700   42.3670 O.2   283  PHE283     -0.2718
    175  CB        -0.3860   13.7990   41.3970 C.3   283  PHE283      0.0547
    176  CG         0.2870   12.7540   42.2580 C.ar  283  PHE283     -0.0202
    177  CD1        0.8970   11.6450   41.6830 C.ar  283  PHE283     -0.0042
    178  CD2        0.2790   12.8660   43.6460 C.ar  283  PHE283     -0.0042
    179  CE1        1.4900   10.6600   42.4780 C.ar  283  PHE283     -0.0003
    180  CE2        0.8690   11.8850   44.4510 C.ar  283  PHE283     -0.0003
    181  CZ         1.4740   10.7820   43.8680 C.ar  283  PHE283     -0.0000
    182  N         -3.2850   14.0610   42.6160 N.am  284  TYR284     -0.1976
    183  CA        -4.2010   13.8300   43.7320 C.3   284  TYR284      0.1639
    184  C         -5.4480   13.0830   43.2890 C.2   284  TYR284      0.2290
    185  O         -5.8880   12.1400   43.9530 O.2   284  TYR284     -0.2864
    186  CB        -4.6160   15.1490   44.3980 C.3   284  TYR284      0.0560
    187  CG        -3.6260   15.6690   45.4270 C.ar  284  TYR284     -0.0198
    188  CD1       -2.3120   15.9630   45.0740 C.ar  284  TYR284     -0.0009
    189  CD2       -4.0160   15.8900   46.7500 C.ar  284  TYR284     -0.0009
    190  CE1       -1.4080   16.4710   46.0070 C.ar  284  TYR284      0.0417
    191  CE2       -3.1170   16.4010   47.6910 C.ar  284  TYR284      0.0417
    192  CZ        -1.8160   16.6890   47.3100 C.ar  284  TYR284      0.1957
    193  OH        -0.9260   17.2130   48.2210 O.3   284  TYR284     -0.2866
@<TRIPOS>BOND
     1   150   151    1
     2   151   152    1
     3   151   154    1
     4   152   153    2
     5   154   155    1
     6   142   141    2
     7   155   156    1
     8   158   159    1
     9   159   160    1
    10   157   156    1
    11   141   140    1
    12   160   161    2
    13   160   162   am
    14   143   140    1
    15   143   144    1
    16   140   139    1
    17   136   134   ar
    18   136   137   ar
    19   144   145   ar
    20   144   146   ar
    21   145   147   ar
    22   162   163    1
    23   171   172    1
    24   134   132   ar
    25   138   137    1
    26   146   148   ar
    27   137   135   ar
    28   147   149   ar
    29    80    79    2
    30    79    78    1
    31   130   129    2
    32   172   175    1
    33   172   173    1
    34   148   149   ar
    35   163   164    1
    36   163   166    1
    37   175   176    1
    38   132   131    1
    39   132   133   ar
    40   164   165    2
    41   177   176   ar
    42   177   179   ar
    43    81    78    1
    44    81    82    1
    45    68    67   ar
    46   135   133   ar
    47   131   128    1
    48    78    77    1
    49   129   128    1
    50   173   174    2
    51   173   182   am
    52   128   127    1
    53   176   178   ar
    54   170   168   am
    55   166   167    1
    56   179   181   ar
    57   167   168    1
    58   182   183    1
    59    83    82    1
    60    69    67   ar
    61    67    66    1
    62    82    84    1
    63   122   121    2
    64   168   169    2
    65    61    62    1
    66   184   183    1
    67   184   185    2
    68    59    60   ar
    69    59    57   ar
    70   127   121   am
    71   178   180   ar
    72   183   186    1
    73    60    58   ar
    74   121   120    1
    75   181   180   ar
    76    66    65    1
    77   125   123    1
    78    65    62    1
    79    57    56   ar
    80   186   187    1
    81    62    63    1
    82    21    19   ar
    83    21    22   ar
    84    63    64    2
    85    58    56   ar
    86    73    72    2
    87   188   187   ar
    88   188   190   ar
    89    19    18   ar
    90    22    20   ar
    91    56    55    1
    92   120   123    1
    93   120   119    1
    94   123   124    1
    95    72    71    1
    96    53    52    1
    97    53    54    2
    98   117   116    2
    99   187   189   ar
   100    52    55    1
   101    52    51    1
   102   190   192   ar
   103    18    20   ar
   104    18    17    1
   105   116   115    1
   106   124   126    1
   107    71    70    1
   108    71    74    1
   109   189   191   ar
   110   100    98    1
   111   118   115    1
   112    99    98    1
   113     8    10   ar
   114     8     6   ar
   115   115   114    1
   116    17    14    1
   117     5     6    1
   118     5     2    1
   119   192   191   ar
   120   192   193    1
   121    75    74    1
   122    49    48   ar
   123    10    11   ar
   124    74    76    1
   125    98    97    1
   126     6     7   ar
   127     1     2    1
   128    92    90   ar
   129    13    14    1
   130    13     3   am
   131     2     3    1
   132    48    50   ar
   133    48    47    1
   134    14    15    1
   135   112   111    1
   136    11    12    1
   137    11     9   ar
   138     7     9   ar
   139    97    94    1
   140     3     4    2
   141    36    35    2
   142    46    45    2
   143    90    91   ar
   144    90    89    1
   145    16    15    2
   146    44    47    1
   147    44    45    1
   148    44    43    1
   149    89    86    1
   150   111   113    1
   151   111   108    1
   152    94    93    1
   153    94    95    1
   154    35    43   am
   155    35    34    1
   156    40    42   ar
   157    40    38   ar
   158    93    87   am
   159    32    31   ar
   160    32    30   ar
   161    88    87    2
   162   106   105    1
   163    87    86    1
   164    42    41   ar
   165    96    95    2
   166    31    29   ar
   167    30    28   ar
   168    86    85    1
   169   108   107    1
   170   108   109    1
   171    38    37    1
   172    38    39   ar
   173    34    37    1
   174    34    33    1
   175   107   103   am
   176    29    28   ar
   177    28    27    1
   178   105   102    1
   179    41    39   ar
   180   110   109    2
   181    27    24    1
   182   103   104    2
   183   103   102    1
   184   101   102    1
   185    24    23    1
   186    24    25    1
   187    25    26    2
