@<TRIPOS>MOLECULE
tmp/2ourA00.pdb
 175 166 0 0 0
SMALL
GASTEIGER

@<TRIPOS>ATOM
      1  N         14.2230   14.7520   46.8120 N.3    78  TYR78      -0.1227
      2  CA        13.0160   14.1410   47.3610 C.3    78  TYR78       0.1736
      3  C         13.1130   12.7080   47.8910 C.2    78  TYR78       0.2595
      4  O         12.7000   12.4430   49.0200 O.2    78  TYR78      -0.2718
      5  CB        11.8960   14.2340   46.3160 C.3    78  TYR78       0.0548
      6  CG        10.5980   13.5840   46.7390 C.ar   78  TYR78      -0.0200
      7  CD1        9.9050   14.0330   47.8640 C.ar   78  TYR78      -0.0009
      8  CD2       10.0710   12.5090   46.0230 C.ar   78  TYR78      -0.0009
      9  CE1        8.7210   13.4260   48.2640 C.ar   78  TYR78       0.0417
     10  CE2        8.8880   11.8950   46.4160 C.ar   78  TYR78       0.0417
     11  CZ         8.2200   12.3600   47.5380 C.ar   78  TYR78       0.1957
     12  OH         7.0500   11.7570   47.9280 O.3    78  TYR78      -0.2866
     13  N         13.6280   11.7790   47.0890 N.am   79  HIS79      -0.1975
     14  CA        13.7280   10.3880   47.5360 C.3    79  HIS79       0.1656
     15  C         14.9460   10.1880   48.4270 C.2    79  HIS79       0.2291
     16  O         15.8710    9.4360   48.1020 O.2    79  HIS79      -0.2864
     17  CB        13.7760    9.4480   46.3290 C.3    79  HIS79       0.0771
     18  CG        12.5310    9.4800   45.4980 C.ar   79  HIS79       0.0820
     19  ND1       12.4590   10.1340   44.2880 N.ar   79  HIS79      -0.2267
     20  CD2       11.2990    8.9620   45.7210 C.ar   79  HIS79       0.1154
     21  CE1       11.2370   10.0180   43.7980 C.ar   79  HIS79       0.1986
     22  NE2       10.5130    9.3120   44.6490 N.ar   79  HIS79      -0.2212
     23  N         12.2790   11.5330   53.3700 N.3    83  HIS83      -0.1241
     24  CA        11.1560   10.8320   52.7540 C.3    83  HIS83       0.1621
     25  C         10.9460    9.4640   53.4000 C.2    83  HIS83       0.2264
     26  O          9.8140    9.0610   53.6720 O.2    83  HIS83      -0.2867
     27  CB        11.4230   10.6770   51.2520 C.3    83  HIS83       0.0745
     28  CG        10.4090    9.8460   50.5270 C.ar   83  HIS83       0.0817
     29  ND1        9.0960   10.2350   50.3740 N.ar   83  HIS83      -0.2268
     30  CD2       10.5260    8.6580   49.8870 C.ar   83  HIS83       0.1154
     31  CE1        8.4490    9.3250   49.6690 C.ar   83  HIS83       0.1986
     32  NE2        9.2940    8.3570   49.3600 N.ar   83  HIS83      -0.2212
     33  N         13.0440    3.3280   49.4470 N.3   118  ASP118     -0.1239
     34  CA        13.7610    4.0680   48.3980 C.3   118  ASP118      0.1674
     35  C         15.2620    4.0600   48.6800 C.2   118  ASP118      0.2266
     36  O         15.9960    4.9540   48.2490 O.2   118  ASP118     -0.2867
     37  CB        13.2750    5.5240   48.3100 C.3   118  ASP118      0.1410
     38  CG        12.0690    5.6870   47.4070 C.2   118  ASP118      0.3668
     39  OD1       12.0530    5.0530   46.3350 O.co2 118  ASP118     -0.2456
     40  OD2       11.1490    6.4580   47.7550 O.co2 118  ASP118     -0.2456
     41  N         18.3530    5.3590   46.3800 N.3   121  HIS121     -0.1241
     42  CA        17.7300    5.9600   45.2000 C.3   121  HIS121      0.1621
     43  C         18.7540    6.9790   44.6880 C.2   121  HIS121      0.2264
     44  O         19.3610    7.6990   45.4780 O.2   121  HIS121     -0.2867
     45  CB        16.4330    6.6660   45.6090 C.3   121  HIS121      0.0745
     46  CG        15.5460    7.0320   44.4590 C.ar  121  HIS121      0.0817
     47  ND1       15.8850    7.9890   43.5260 N.ar  121  HIS121     -0.2268
     48  CD2       14.3170    6.5850   44.1090 C.ar  121  HIS121      0.1154
     49  CE1       14.9000    8.1180   42.6540 C.ar  121  HIS121      0.1986
     50  NE2       13.9350    7.2790   42.9860 N.ar  121  HIS121     -0.2212
     51  N         12.8770   -0.3480   42.4820 N.3   146  GLU146     -0.1245
     52  CA        12.2980   -1.0140   43.6440 C.3   146  GLU146      0.1567
     53  C         12.9850   -2.3490   43.9330 C.2   146  GLU146      0.2260
     54  O         13.1900   -2.7070   45.0880 O.2   146  GLU146     -0.2867
     55  CB        10.7920   -1.2180   43.4480 C.3   146  GLU146      0.0388
     56  CG         9.9790    0.0830   43.3600 C.3   146  GLU146      0.1160
     57  CD        10.1020    0.7910   42.0220 C.2   146  GLU146      0.3649
     58  OE1       10.5370    0.1550   41.0420 O.co2 146  GLU146     -0.2457
     59  OE2        9.7420    1.9840   41.9480 O.co2 146  GLU146     -0.2457
     60  N          5.6590   -0.1440   45.9200 N.3   187  THR187     -0.1218
     61  CA         5.8150    1.3060   45.8050 C.3   187  THR187      0.1862
     62  C          6.1200    1.7490   44.3730 C.2   187  THR187      0.2287
     63  O          6.3280    2.9340   44.1220 O.2   187  THR187     -0.2866
     64  CB         6.8860    1.8770   46.7820 C.3   187  THR187      0.1770
     65  OG1        8.1750    1.3200   46.5010 O.3   187  THR187     -0.2211
     66  CG2        6.4950    1.5710   48.2200 C.3   187  THR187      0.0375
     67  N          4.7000    2.8390   41.4690 N.3   189  LEU189     -0.1245
     68  CA         3.3600    3.3270   41.1590 C.3   189  LEU189      0.1561
     69  C          2.7210    2.6930   39.9340 C.2   189  LEU189      0.2260
     70  O          1.5060    2.6990   39.7970 O.2   189  LEU189     -0.2867
     71  CB         3.3540    4.8540   41.0220 C.3   189  LEU189      0.0270
     72  CG         1.9660    5.5000   41.1430 C.3   189  LEU189      0.0019
     73  CD1        1.4030    5.2720   42.5460 C.3   189  LEU189      0.0001
     74  CD2        2.0660    6.9900   40.8540 C.3   189  LEU189      0.0001
     75  N          3.6490    6.0060   50.6600 N.3   228  ALA228     -0.1231
     76  CA         4.6210    6.6070   49.7570 C.3   228  ALA228      0.1694
     77  C          4.1600    7.9760   49.2530 C.2   228  ALA228      0.2591
     78  O          4.9790    8.8710   49.0340 O.2   228  ALA228     -0.2718
     79  CB         4.8720    5.6760   48.5710 C.3   228  ALA228      0.0304
     80  N          2.8510    8.1350   49.0770 N.am  229  LEU229     -0.1980
     81  CA         2.2880    9.3900   48.5590 C.3   229  LEU229      0.1596
     82  C          1.7650   10.3260   49.6310 C.2   229  LEU229      0.2287
     83  O          1.1900   11.3610   49.3100 O.2   229  LEU229     -0.2864
     84  CB         1.1150    9.0920   47.6340 C.3   229  LEU229      0.0297
     85  CG         1.2920    8.1100   46.4830 C.3   229  LEU229      0.0022
     86  CD1       -0.0410    7.9800   45.7520 C.3   229  LEU229      0.0001
     87  CD2        2.3810    8.6010   45.5400 C.3   229  LEU229      0.0001
     88  N          2.6110   12.8090   51.2850 N.3   231  SER231     -0.1202
     89  CA         2.8470   14.2470   51.3840 C.3   231  SER231      0.2020
     90  C          1.5550   14.9720   51.0050 C.2   231  SER231      0.2618
     91  O          1.3440   16.1160   51.3970 O.2   231  SER231     -0.2717
     92  CB         3.9650   14.6930   50.4400 C.3   231  SER231      0.2103
     93  OG         3.4680   14.8900   49.1270 O.3   231  SER231     -0.2182
     94  N          0.6860   14.3050   50.2450 N.am  232  VAL232     -0.1979
     95  CA        -0.5690   14.9210   49.8300 C.3   232  VAL232      0.1595
     96  C         -1.6460   14.8540   50.9110 C.2   232  VAL232      0.2287
     97  O         -2.7670   15.3180   50.7020 O.2   232  VAL232     -0.2864
     98  CB        -1.1280   14.2830   48.5260 C.3   232  VAL232      0.0276
     99  CG1       -0.0780   14.3530   47.4240 C.3   232  VAL232      0.0022
    100  CG2       -1.5670   12.8490   48.7720 C.3   232  VAL232      0.0022
    101  N          2.4080   20.1770   52.3420 N.3   239  THR239     -0.1218
    102  CA         2.1710   19.5230   51.0640 C.3   239  THR239      0.1862
    103  C          2.8350   20.3200   49.9450 C.2   239  THR239      0.2287
    104  O          3.4850   19.7560   49.0580 O.2   239  THR239     -0.2866
    105  CB         0.6560   19.4180   50.7980 C.3   239  THR239      0.1770
    106  OG1        0.0710   18.5310   51.7600 O.3   239  THR239     -0.2211
    107  CG2        0.3780   18.8910   49.3990 C.3   239  THR239      0.0375
    108  N          6.0340   19.3050   47.5510 N.3   243  ALA243     -0.1245
    109  CA         5.8710   19.2870   46.1050 C.3   243  ALA243      0.1562
    110  C          7.0770   19.9780   45.4700 C.2   243  ALA243      0.2260
    111  O          7.5530   19.5600   44.4150 O.2   243  ALA243     -0.2867
    112  CB         4.5780   19.9980   45.7000 C.3   243  ALA243      0.0290
    113  N          9.8060   17.3990   45.2470 N.3   246  ILE246     -0.1231
    114  CA         9.4890   16.3970   44.2390 C.3   246  ILE246      0.1692
    115  C          9.8930   16.9250   42.8660 C.2   246  ILE246      0.2592
    116  O         10.6130   16.2580   42.1240 O.2   246  ILE246     -0.2718
    117  CB         7.9730   16.0750   44.2400 C.3   246  ILE246      0.0266
    118  CG1        7.5940   15.3860   45.5550 C.3   246  ILE246      0.0019
    119  CG2        7.6140   15.1940   43.0440 C.3   246  ILE246      0.0020
    120  CD1        6.0980   15.1870   45.7470 C.3   246  ILE246      0.0001
    121  N          9.4360   18.1290   42.5360 N.am  247  TYR247     -0.1976
    122  CA         9.7650   18.7050   41.2410 C.3   247  TYR247      0.1639
    123  C         11.2370   19.0510   41.1010 C.2   247  TYR247      0.2290
    124  O         11.7950   18.9290   40.0130 O.2   247  TYR247     -0.2864
    125  CB         8.8800   19.9240   40.9410 C.3   247  TYR247      0.0560
    126  CG         7.4970   19.5180   40.4850 C.ar  247  TYR247     -0.0198
    127  CD1        6.4530   19.3660   41.3970 C.ar  247  TYR247     -0.0009
    128  CD2        7.2460   19.2250   39.1440 C.ar  247  TYR247     -0.0009
    129  CE1        5.1970   18.9330   40.9840 C.ar  247  TYR247      0.0417
    130  CE2        5.9940   18.7870   38.7200 C.ar  247  TYR247      0.0417
    131  CZ         4.9720   18.6440   39.6460 C.ar  247  TYR247      0.1957
    132  OH         3.7350   18.2030   39.2310 O.3   247  TYR247     -0.2866
    133  N         12.7460   15.8550   39.9660 N.3   250  PHE250     -0.1241
    134  CA        12.3700   15.5200   38.5960 C.3   250  PHE250      0.1605
    135  C         12.9750   16.4720   37.5700 C.2   250  PHE250      0.2264
    136  O         13.3410   16.0520   36.4730 O.2   250  PHE250     -0.2867
    137  CB        10.8480   15.4760   38.4530 C.3   250  PHE250      0.0534
    138  CG        10.2380   14.1740   38.9030 C.ar  250  PHE250     -0.0203
    139  CD1       10.5940   12.9760   38.2820 C.ar  250  PHE250     -0.0042
    140  CD2        9.3130   14.1400   39.9420 C.ar  250  PHE250     -0.0042
    141  CE1       10.0360   11.7630   38.6890 C.ar  250  PHE250     -0.0003
    142  CE2        8.7500   12.9330   40.3580 C.ar  250  PHE250     -0.0003
    143  CZ         9.1130   11.7410   39.7290 C.ar  250  PHE250     -0.0000
    144  N          6.4480   17.4190   32.8700 N.3   267  MET267     -0.1245
    145  CA         6.6100   17.3150   34.3140 C.3   267  MET267      0.1570
    146  C          8.0610   17.4310   34.7730 C.2   267  MET267      0.2261
    147  O          8.3370   17.9960   35.8290 O.2   267  MET267     -0.2867
    148  CB         6.0250   15.9920   34.8110 C.3   267  MET267      0.0387
    149  CG         6.1290   15.8100   36.3150 C.3   267  MET267      0.0595
    150  SD         5.5760   14.1820   36.8160 S.3   267  MET267     -0.1393
    151  CE         5.8240   14.2680   38.5840 C.3   267  MET267      0.0692
    152  N         -0.6790   19.8500   36.7170 N.3   279  GLY279     -0.1210
    153  CA        -0.0530   18.5430   36.8180 C.3   279  GLY279      0.1956
    154  C         -0.4450   17.8650   38.1100 C.2   279  GLY279      0.2611
    155  O         -0.7140   16.6620   38.1370 O.2   279  GLY279     -0.2717
    156  N         -0.4760   18.6400   39.1870 N.am  280  GLN280     -0.1979
    157  CA        -0.8540   18.0980   40.4820 C.3   280  GLN280      0.1601
    158  C         -2.3360   17.7650   40.5010 C.2   280  GLN280      0.2287
    159  O         -2.7410   16.7400   41.0470 O.2   280  GLN280     -0.2864
    160  CB        -0.4990   19.0840   41.5960 C.3   280  GLN280      0.0394
    161  CG         0.9930   19.1020   41.8920 C.3   280  GLN280      0.0908
    162  CD         1.4910   17.7460   42.3690 C.2   280  GLN280      0.2608
    163  OE1        1.1740   17.3160   43.4790 O.2   280  GLN280     -0.2717
    164  NE2        2.2580   17.0600   41.5270 N.am  280  GLN280     -0.0878
    165  N         -2.7560   14.5390   38.9430 N.3   283  PHE283     -0.1241
    166  CA        -2.2430   13.4740   39.7980 C.3   283  PHE283      0.1605
    167  C         -3.2270   13.1200   40.9140 C.2   283  PHE283      0.2264
    168  O         -3.4100   11.9420   41.2360 O.2   283  PHE283     -0.2867
    169  CB        -0.9050   13.8840   40.4110 C.3   283  PHE283      0.0534
    170  CG        -0.3310   12.8600   41.3440 C.ar  283  PHE283     -0.0203
    171  CD1        0.2660   11.7040   40.8480 C.ar  283  PHE283     -0.0042
    172  CD2       -0.4030   13.0440   42.7200 C.ar  283  PHE283     -0.0042
    173  CE1        0.7860   10.7450   41.7130 C.ar  283  PHE283     -0.0003
    174  CE2        0.1120   12.0890   43.5940 C.ar  283  PHE283     -0.0003
    175  CZ         0.7060   10.9410   43.0900 C.ar  283  PHE283     -0.0000
@<TRIPOS>BOND
     1   144   145    1
     2   145   146    1
     3   145   148    1
     4   146   147    2
     5   148   149    1
     6   149   150    1
     7   136   135    2
     8   152   153    1
     9   150   151    1
    10   153   154    1
    11   135   134    1
    12   154   155    2
    13   154   156   am
    14   139   141   ar
    15   139   138   ar
    16   137   134    1
    17   137   138    1
    18   134   133    1
    19   141   143   ar
    20   130   128   ar
    21   130   131   ar
    22   138   140   ar
    23   165   166    1
    24   128   126   ar
    25   156   157    1
    26   132   131    1
    27   131   129   ar
    28   143   142   ar
    29    70    69    2
    30   166   169    1
    31   166   167    1
    32    69    68    1
    33   140   142   ar
    34   124   123    2
    35   169   170    1
    36   157   158    1
    37   157   160    1
    38   126   125    1
    39   126   127   ar
    40   158   159    2
    41   171   170   ar
    42   171   173   ar
    43    74    72    1
    44   167   168    2
    45   125   122    1
    46   129   127   ar
    47    71    72    1
    48    71    68    1
    49    58    57   ar
    50   123   122    1
    51    72    73    1
    52    68    67    1
    53   122   121    1
    54   170   172   ar
    55   164   162   am
    56   160   161    1
    57   173   175   ar
    58   161   162    1
    59    59    57   ar
    60    57    56    1
    61   116   115    2
    62   162   163    2
    63    51    52    1
    64   121   115   am
    65    49    50   ar
    66    49    47   ar
    67   172   174   ar
    68   115   114    1
    69    50    48   ar
    70   119   117    1
    71   175   174   ar
    72    56    55    1
    73    55    52    1
    74    47    46   ar
    75    52    53    1
    76    21    19   ar
    77    21    22   ar
    78    53    54    2
    79    48    46   ar
    80    63    62    2
    81   114   117    1
    82   114   113    1
    83   117   118    1
    84    19    18   ar
    85    62    61    1
    86   111   110    2
    87    46    45    1
    88    22    20   ar
    89    43    42    1
    90    43    44    2
    91    42    45    1
    92    42    41    1
    93   110   109    1
    94    18    20   ar
    95    18    17    1
    96    87    85    1
    97   118   120    1
    98   112   109    1
    99    86    85    1
   100    61    60    1
   101    61    64    1
   102     8    10   ar
   103     8     6   ar
   104   109   108    1
   105     5     6    1
   106     5     2    1
   107    17    14    1
   108    39    38   ar
   109    10    11   ar
   110    85    84    1
   111    65    64    1
   112     6     7   ar
   113    64    66    1
   114     1     2    1
   115    13    14    1
   116    13     3   am
   117     2     3    1
   118    38    40   ar
   119    38    37    1
   120    99    98    1
   121    14    15    1
   122    11    12    1
   123    11     9   ar
   124    84    81    1
   125     7     9   ar
   126     3     4    2
   127    16    15    2
   128    36    35    2
   129    37    34    1
   130    34    35    1
   131    34    33    1
   132    98   100    1
   133    98    95    1
   134    81    80    1
   135    81    82    1
   136    79    76    1
   137    78    77    2
   138   104   103    2
   139    80    77   am
   140    93    92    1
   141    77    76    1
   142    83    82    2
   143    32    31   ar
   144    32    30   ar
   145   107   105    1
   146    31    29   ar
   147    76    75    1
   148    95    94    1
   149    95    96    1
   150    30    28   ar
   151   103   102    1
   152    94    90   am
   153    29    28   ar
   154    92    89    1
   155    28    27    1
   156    97    96    2
   157   105   102    1
   158   105   106    1
   159    90    89    1
   160    90    91    2
   161   102   101    1
   162    27    24    1
   163    88    89    1
   164    24    23    1
   165    24    25    1
   166    25    26    2
