@<TRIPOS>MOLECULE
tmp/2ouuA01.pdb
 82 78 0 0 0
SMALL
GASTEIGER

@<TRIPOS>ATOM
      1  N         30.3170   -6.3080   52.5820 N.3     1  SER1       -0.1217
      2  CA        29.0940   -5.5400   52.2190 C.3     1  SER1        0.1889
      3  C         29.4150   -4.3000   51.3990 C.2     1  SER1        0.2288
      4  O         30.4530   -3.6630   51.5850 O.2     1  SER1       -0.2866
      5  CB        28.3410   -5.1130   53.4780 C.3     1  SER1        0.2089
      6  OG        27.2300   -4.2940   53.1390 O.3     1  SER1       -0.2183
      7  N         27.2960   -1.7880   51.3950 N.3     3  MET3       -0.1230
      8  CA        26.5140   -0.7400   52.0610 C.3     3  MET3        0.1702
      9  C         27.3670    0.0520   53.0520 C.2     3  MET3        0.2593
     10  O         28.3260   -0.4760   53.6160 O.2     3  MET3       -0.2718
     11  CB        25.3410   -1.3480   52.8500 C.3     3  MET3        0.0401
     12  CG        24.3430   -2.1750   52.0530 C.3     3  MET3        0.0596
     13  SD        23.6590   -1.2790   50.6460 S.3     3  MET3       -0.1393
     14  CE        22.4820   -0.1470   51.4660 C.3     3  MET3        0.0692
     15  N         27.0200    1.3170   53.2620 N.am    4  SER4       -0.1938
     16  CA        27.7300    2.1460   54.2290 C.3     4  SER4        0.2055
     17  C         27.1760    1.7260   55.5800 C.2     4  SER4        0.2643
     18  O         25.9960    1.3850   55.6920 O.2     4  SER4       -0.2714
     19  CB        27.4490    3.6250   53.9880 C.3     4  SER4        0.2130
     20  OG        27.9660    4.0300   52.7350 O.3     4  SER4       -0.2179
     21  N         28.0170    1.7300   56.6050 N.am    5  ILE5       -0.1963
     22  CA        27.5790    1.3040   57.9230 C.3     5  ILE5        0.1727
     23  C         27.7160    2.4370   58.9350 C.2     5  ILE5        0.2616
     24  O         28.6250    3.2660   58.8440 O.2     5  ILE5       -0.2715
     25  CB        28.3930    0.0530   58.3790 C.3     5  ILE5        0.0290
     26  CG1       27.7740   -0.5760   59.6290 C.3     5  ILE5        0.0022
     27  CG2       29.8470    0.4400   58.6370 C.3     5  ILE5        0.0023
     28  CD1       28.4160   -1.9120   60.0200 C.3     5  ILE5        0.0001
     29  N         26.7880    2.4920   59.8830 N.am    6  CYS6       -0.1954
     30  CA        26.8350    3.5310   60.9040 C.3     6  CYS6        0.1843
     31  C         28.0480    3.2950   61.7970 C.2     6  CYS6        0.2626
     32  O         28.6200    2.2020   61.8150 O.2     6  CYS6       -0.2714
     33  CB        25.5520    3.5140   61.7580 C.3     6  CYS6        0.0997
     34  SG        25.2610    1.9920   62.6960 S.3     6  CYS6       -0.0797
     35  N         28.4410    4.3310   62.5240 N.am    7  THR7       -0.1936
     36  CA        29.5700    4.2430   63.4410 C.3     7  THR7        0.2028
     37  C         29.0110    3.9700   64.8270 C.2     7  THR7        0.2643
     38  O         27.8260    4.1630   65.0670 O.2     7  THR7       -0.2714
     39  CB        30.3230    5.5580   63.5040 C.3     7  THR7        0.1808
     40  OG1       29.4440    6.5780   64.0100 O.3     7  THR7       -0.2208
     41  CG2       30.8340    5.9420   62.1270 C.3     7  THR7        0.0379
     42  N         29.8700    3.5230   65.7320 N.am    8  SER8       -0.1935
     43  CA        29.4640    3.2390   67.1020 C.3     8  SER8        0.2055
     44  C         28.8140    4.4690   67.7520 C.2     8  SER8        0.2642
     45  O         27.8010    4.3550   68.4550 O.2     8  SER8       -0.2714
     46  CB        30.6920    2.7910   67.9130 C.3     8  SER8        0.2130
     47  OG        30.3950    2.6590   69.2980 O.3     8  SER8       -0.2179
     48  N         29.3920    5.6410   67.5130 N.am    9  GLU9       -0.1976
     49  CA        28.8750    6.8790   68.0880 C.3     9  GLU9        0.1602
     50  C         27.4520    7.1560   67.6210 C.2     9  GLU9        0.2287
     51  O         26.6070    7.6050   68.4010 O.2     9  GLU9       -0.2864
     52  CB        29.7750    8.0580   67.7050 C.3     9  GLU9        0.0415
     53  CG        29.4050    9.3660   68.3890 C.3     9  GLU9        0.1163
     54  CD        30.2930   10.5190   67.9570 C.2     9  GLU9        0.3649
     55  OE1       30.1070   11.0310   66.8260 O.co2   9  GLU9       -0.2457
     56  OE2       31.1880   10.9060   68.7450 O.co2   9  GLU9       -0.2457
     57  N         22.2830    6.4450   56.7610 N.3    72  LYS72      -0.1245
     58  CA        23.5360    6.6440   56.0380 C.3    72  LYS72       0.1561
     59  C         23.4850    6.2380   54.5660 C.2    72  LYS72       0.2260
     60  O         24.3140    6.7010   53.7630 O.2    72  LYS72      -0.2867
     61  CB        24.6560    5.8720   56.7410 C.3    72  LYS72       0.0271
     62  CG        26.0550    6.3900   56.4220 C.3    72  LYS72       0.0035
     63  CD        27.0820    5.8190   57.3840 C.3    72  LYS72       0.0206
     64  CE        28.4080    6.5480   57.2620 C.3    72  LYS72       0.1093
     65  NZ        29.4210    6.0030   58.2050 N.3    72  LYS72      -0.1314
     66  N         24.4380   -6.5910   57.4140 N.3   160  LEU160     -0.1231
     67  CA        25.5740   -5.9390   58.0630 C.3   160  LEU160      0.1693
     68  C         25.6950   -6.5140   59.4710 C.2   160  LEU160      0.2591
     69  O         24.6910   -6.8840   60.0840 O.2   160  LEU160     -0.2718
     70  CB        25.3600   -4.4250   58.1310 C.3   160  LEU160      0.0284
     71  CG        25.4570   -3.6790   56.7950 C.3   160  LEU160      0.0019
     72  CD1       25.1000   -2.2180   56.9920 C.3   160  LEU160      0.0001
     73  CD2       26.8670   -3.8130   56.2410 C.3   160  LEU160      0.0001
     74  N         26.9180   -6.5900   59.9900 N.am  161  GLU161     -0.1979
     75  CA        27.1240   -7.1500   61.3210 C.3   161  GLU161      0.1602
     76  C         26.2410   -6.5040   62.3850 C.2   161  GLU161      0.2287
     77  O         26.2220   -5.2870   62.5340 O.2   161  GLU161     -0.2864
     78  CB        28.6010   -7.0200   61.7300 C.3   161  GLU161      0.0415
     79  CG        28.9230   -7.5740   63.1120 C.3   161  GLU161      0.1163
     80  CD        30.4220   -7.6670   63.3810 C.2   161  GLU161      0.3649
     81  OE1       31.1310   -6.6480   63.2000 O.co2 161  GLU161     -0.2457
     82  OE2       30.8910   -8.7630   63.7750 O.co2 161  GLU161     -0.2457
@<TRIPOS>BOND
     1    13    14    1
     2    13    12    1
     3     7     8    1
     4     3     4    2
     5     3     2    1
     6    12    11    1
     7     8    11    1
     8     8     9    1
     9     2     1    1
    10     2     5    1
    11    20    19    1
    12     9    15   am
    13     9    10    2
    14     6     5    1
    15    15    16    1
    16    60    59    2
    17    19    16    1
    18    16    17    1
    19    59    58    1
    20    17    18    2
    21    17    21   am
    22    58    61    1
    23    58    57    1
    24    73    71    1
    25    62    61    1
    26    62    63    1
    27    21    22    1
    28    71    72    1
    29    71    70    1
    30    64    63    1
    31    64    65    1
    32    66    67    1
    33    22    25    1
    34    22    23    1
    35    67    70    1
    36    67    68    1
    37    25    27    1
    38    25    26    1
    39    24    23    2
    40    23    29   am
    41    68    74   am
    42    68    69    2
    43    26    28    1
    44    29    30    1
    45    74    75    1
    46    30    33    1
    47    30    31    1
    48    75    78    1
    49    75    76    1
    50    78    79    1
    51    33    34    1
    52    31    32    2
    53    31    35   am
    54    41    39    1
    55    76    77    2
    56    35    36    1
    57    79    80    1
    58    81    80   ar
    59    80    82   ar
    60    36    39    1
    61    36    37    1
    62    39    40    1
    63    37    38    2
    64    37    42   am
    65    42    43    1
    66    55    54   ar
    67    43    44    1
    68    43    46    1
    69    48    44   am
    70    48    49    1
    71    50    49    1
    72    50    51    2
    73    52    49    1
    74    52    53    1
    75    44    45    2
    76    46    47    1
    77    54    53    1
    78    54    56   ar
