@<TRIPOS>MOLECULE
tmp/2ouuA00.pdb
 148 140 0 0 0
SMALL
GASTEIGER

@<TRIPOS>ATOM
      1  N         14.5380   15.3320   47.3510 N.3    79  TYR79      -0.1227
      2  CA        13.2940   14.7670   47.8630 C.3    79  TYR79       0.1736
      3  C         13.3460   13.3350   48.3940 C.2    79  TYR79       0.2595
      4  O         12.9110   13.0760   49.5110 O.2    79  TYR79      -0.2718
      5  CB        12.2190   14.8620   46.7840 C.3    79  TYR79       0.0548
      6  CG        10.8990   14.2960   47.2260 C.ar   79  TYR79      -0.0200
      7  CD1       10.1700   14.8870   48.2590 C.ar   79  TYR79      -0.0009
      8  CD2       10.3910   13.1430   46.6340 C.ar   79  TYR79      -0.0009
      9  CE1        8.9590   14.3380   48.6910 C.ar   79  TYR79       0.0417
     10  CE2        9.1840   12.5900   47.0580 C.ar   79  TYR79       0.0417
     11  CZ         8.4720   13.1910   48.0800 C.ar   79  TYR79       0.1957
     12  OH         7.2550   12.6430   48.4600 O.3    79  TYR79      -0.2866
     13  N         13.8530   12.4020   47.5980 N.am   80  HIS80      -0.1975
     14  CA        13.9180   11.0090   48.0440 C.3    80  HIS80       0.1656
     15  C         15.0890   10.7690   48.9840 C.2    80  HIS80       0.2291
     16  O         16.0050    9.9990   48.6850 O.2    80  HIS80      -0.2864
     17  CB        13.9990   10.0890   46.8230 C.3    80  HIS80       0.0771
     18  CG        12.7570   10.1020   45.9900 C.ar   80  HIS80       0.0820
     19  ND1       12.6720   10.7590   44.7800 N.ar   80  HIS80      -0.2267
     20  CD2       11.5370    9.5580   46.2110 C.ar   80  HIS80       0.1154
     21  CE1       11.4500   10.6160   44.2920 C.ar   80  HIS80       0.1986
     22  NE2       10.7440    9.8910   45.1410 N.ar   80  HIS80      -0.2212
     23  N         12.7470    3.9470   49.7960 N.3   119  ASP119     -0.1239
     24  CA        13.4800    4.6610   48.7440 C.3   119  ASP119      0.1674
     25  C         14.9740    4.5980   49.0120 C.2   119  ASP119      0.2266
     26  O         15.7340    5.4590   48.5630 O.2   119  ASP119     -0.2867
     27  CB        13.0600    6.1370   48.6490 C.3   119  ASP119      0.1410
     28  CG        11.8430    6.3460   47.7740 C.2   119  ASP119      0.3668
     29  OD1       11.7390    5.6740   46.7260 O.co2 119  ASP119     -0.2456
     30  OD2       11.0090    7.2010   48.1220 O.co2 119  ASP119     -0.2456
     31  N         12.4530    0.4440   42.7140 N.3   147  GLU147     -0.1245
     32  CA        11.8460   -0.2440   43.8540 C.3   147  GLU147      0.1567
     33  C         12.4860   -1.6080   44.1160 C.2   147  GLU147      0.2260
     34  O         12.7020   -1.9860   45.2660 O.2   147  GLU147     -0.2867
     35  CB        10.3280   -0.3620   43.6500 C.3   147  GLU147      0.0388
     36  CG         9.6140    0.9990   43.5900 C.3   147  GLU147      0.1160
     37  CD         9.8280    1.7340   42.2660 C.2   147  GLU147      0.3649
     38  OE1       10.1470    1.0840   41.2490 O.co2 147  GLU147     -0.2457
     39  OE2        9.6690    2.9690   42.2400 O.co2 147  GLU147     -0.2457
     40  N          5.2040    0.7830   46.1250 N.3   188  THR188     -0.1218
     41  CA         5.3930    2.2340   46.0620 C.3   188  THR188      0.1862
     42  C          5.7390    2.7450   44.6560 C.2   188  THR188      0.2287
     43  O          5.9420    3.9470   44.4600 O.2   188  THR188     -0.2866
     44  CB         6.4450    2.7320   47.0810 C.3   188  THR188      0.1770
     45  OG1        7.7210    2.1540   46.7940 O.3   188  THR188     -0.2211
     46  CG2        6.0230    2.3840   48.4960 C.3   188  THR188      0.0375
     47  N          4.5180    4.0240   41.5990 N.3   190  LEU190     -0.1245
     48  CA         3.2200    4.5780   41.1880 C.3   190  LEU190      0.1561
     49  C          2.6340    3.9400   39.9380 C.2   190  LEU190      0.2260
     50  O          1.4220    3.9490   39.7550 O.2   190  LEU190     -0.2867
     51  CB         3.3060    6.0960   40.9940 C.3   190  LEU190      0.0270
     52  CG         3.3060    6.9140   42.2870 C.3   190  LEU190      0.0019
     53  CD1        3.4830    8.3980   41.9500 C.3   190  LEU190      0.0001
     54  CD2        1.9870    6.6710   43.0550 C.3   190  LEU190      0.0001
     55  N          3.4440    6.8160   50.8450 N.3   229  ALA229     -0.1231
     56  CA         4.4440    7.4150   49.9770 C.3   229  ALA229      0.1694
     57  C          3.9970    8.7820   49.4600 C.2   229  ALA229      0.2591
     58  O          4.8280    9.6640   49.2100 O.2   229  ALA229     -0.2718
     59  CB         4.7380    6.4840   48.8060 C.3   229  ALA229      0.0304
     60  N          2.6890    8.9700   49.3020 N.am  230  LEU230     -0.1980
     61  CA         2.1620   10.2300   48.7900 C.3   230  LEU230      0.1596
     62  C          1.7650   11.2270   49.8680 C.2   230  LEU230      0.2287
     63  O          1.2930   12.3090   49.5450 O.2   230  LEU230     -0.2864
     64  CB         0.9010    9.9620   47.9610 C.3   230  LEU230      0.0297
     65  CG         0.9820    9.1340   46.6850 C.3   230  LEU230      0.0022
     66  CD1       -0.4240    8.9780   46.1050 C.3   230  LEU230      0.0001
     67  CD2        1.9080    9.8130   45.6940 C.3   230  LEU230      0.0001
     68  N          2.8230   13.6390   51.5510 N.3   232  SER232     -0.1202
     69  CA         3.1650   15.0530   51.6280 C.3   232  SER232      0.2020
     70  C          1.9290   15.8640   51.2420 C.2   232  SER232      0.2618
     71  O          1.7970   17.0180   51.6490 O.2   232  SER232     -0.2717
     72  CB         4.3270   15.4040   50.6940 C.3   232  SER232      0.2103
     73  OG         3.8880   15.6070   49.3670 O.3   232  SER232     -0.2182
     74  N          1.0200   15.2680   50.4640 N.am  233  VAL233     -0.1979
     75  CA        -0.2000   15.9670   50.0420 C.3   233  VAL233      0.1595
     76  C         -1.2990   15.9550   51.0940 C.2   233  VAL233      0.2287
     77  O         -2.3900   16.4750   50.8630 O.2   233  VAL233     -0.2864
     78  CB        -0.7970   15.3870   48.7150 C.3   233  VAL233      0.0276
     79  CG1        0.2530   15.4310   47.6150 C.3   233  VAL233      0.0022
     80  CG2       -1.3290   13.9540   48.9380 C.3   233  VAL233      0.0022
     81  N          6.4560   20.2300   48.0120 N.3   244  ALA244     -0.1245
     82  CA         6.3380   20.2460   46.5570 C.3   244  ALA244      0.1562
     83  C          7.5830   20.9010   45.9500 C.2   244  ALA244      0.2260
     84  O          8.0430   20.4950   44.8810 O.2   244  ALA244     -0.2867
     85  CB         5.0810   20.9990   46.1300 C.3   244  ALA244      0.0290
     86  N         10.1780   18.2100   45.7200 N.3   247  ILE247     -0.1231
     87  CA         9.8230   17.2430   44.7000 C.3   247  ILE247      0.1692
     88  C         10.2190   17.7950   43.3270 C.2   247  ILE247      0.2592
     89  O         10.8530   17.1050   42.5200 O.2   247  ILE247     -0.2718
     90  CB         8.3080   16.9580   44.7530 C.3   247  ILE247      0.0266
     91  CG1        7.9800   16.1770   46.0290 C.3   247  ILE247      0.0019
     92  CG2        7.8760   16.2120   43.5140 C.3   247  ILE247      0.0020
     93  CD1        6.4910   16.0080   46.2920 C.3   247  ILE247      0.0001
     94  N          9.8670   19.0510   43.0680 N.am  248  TYR248     -0.1976
     95  CA        10.2050   19.6310   41.7800 C.3   248  TYR248      0.1639
     96  C         11.6880   19.9120   41.6040 C.2   248  TYR248      0.2290
     97  O         12.2000   19.8510   40.4900 O.2   248  TYR248     -0.2864
     98  CB         9.3650   20.8860   41.5210 C.3   248  TYR248      0.0560
     99  CG         7.9910   20.5340   40.9830 C.ar  248  TYR248     -0.0198
    100  CD1        6.9000   20.3810   41.8360 C.ar  248  TYR248     -0.0009
    101  CD2        7.8010   20.2920   39.6200 C.ar  248  TYR248     -0.0009
    102  CE1        5.6470   19.9910   41.3460 C.ar  248  TYR248      0.0417
    103  CE2        6.5590   19.9060   39.1230 C.ar  248  TYR248      0.0417
    104  CZ         5.4880   19.7590   39.9910 C.ar  248  TYR248      0.1957
    105  OH         4.2480   19.3910   39.5100 O.3   248  TYR248     -0.2866
    106  N         12.8660   16.7110   40.2630 N.3   251  PHE251     -0.1241
    107  CA        12.3940   16.5060   38.8960 C.3   251  PHE251      0.1605
    108  C         13.1720   17.3820   37.9110 C.2   251  PHE251      0.2264
    109  O         13.5760   16.9260   36.8430 O.2   251  PHE251     -0.2867
    110  CB        10.9180   16.8880   38.7390 C.3   251  PHE251      0.0534
    111  CG         9.9420   15.9480   39.3830 C.ar  251  PHE251     -0.0203
    112  CD1       10.2030   14.5910   39.4920 C.ar  251  PHE251     -0.0042
    113  CD2        8.7040   16.4310   39.8090 C.ar  251  PHE251     -0.0042
    114  CE1        9.2390   13.7210   40.0150 C.ar  251  PHE251     -0.0003
    115  CE2        7.7360   15.5730   40.3290 C.ar  251  PHE251     -0.0003
    116  CZ         8.0050   14.2170   40.4320 C.ar  251  PHE251     -0.0000
    117  N          6.8140   18.7030   33.1750 N.3   268  MET268     -0.1245
    118  CA         6.9360   18.5740   34.6190 C.3   268  MET268      0.1570
    119  C          8.3920   18.5850   35.0940 C.2   268  MET268      0.2261
    120  O          8.6960   19.0510   36.1980 O.2   268  MET268     -0.2867
    121  CB         6.2640   17.2790   35.0830 C.3   268  MET268      0.0387
    122  CG         6.1690   17.1390   36.5820 C.3   268  MET268      0.0595
    123  SD         5.6360   15.4760   37.0120 S.3   268  MET268     -0.1393
    124  CE         7.1720   14.5950   36.9090 C.3   268  MET268      0.0692
    125  N         -0.2000   21.2950   36.9490 N.3   280  GLY280     -0.1210
    126  CA         0.3400   19.9510   37.0420 C.3   280  GLY280      0.1956
    127  C         -0.0960   19.3100   38.3430 C.2   280  GLY280      0.2611
    128  O         -0.4310   18.1310   38.3840 O.2   280  GLY280     -0.2717
    129  N         -0.0800   20.0880   39.4150 N.am  281  GLN281     -0.1979
    130  CA        -0.5130   19.5780   40.7110 C.3   281  GLN281      0.1601
    131  C         -1.9900   19.2050   40.6540 C.2   281  GLN281      0.2287
    132  O         -2.3900   18.1380   41.1260 O.2   281  GLN281     -0.2864
    133  CB        -0.2550   20.6290   41.7930 C.3   281  GLN281      0.0394
    134  CG         1.2160   20.7670   42.1140 C.3   281  GLN281      0.0908
    135  CD         1.7690   19.4890   42.6870 C.2   281  GLN281      0.2608
    136  OE1        1.5080   19.1590   43.8440 O.2   281  GLN281     -0.2717
    137  NE2        2.5150   18.7430   41.8780 N.am  281  GLN281     -0.0878
    138  N         -2.2410   15.9690   39.0060 N.3   284  PHE284     -0.1241
    139  CA        -1.7650   14.8710   39.8360 C.3   284  PHE284      0.1605
    140  C         -2.7750   14.5300   40.9310 C.2   284  PHE284      0.2264
    141  O         -3.0550   13.3530   41.1920 O.2   284  PHE284     -0.2867
    142  CB        -0.4240   15.2380   40.4750 C.3   284  PHE284      0.0534
    143  CG         0.1700   14.1310   41.2920 C.ar  284  PHE284     -0.0203
    144  CD1        0.7270   13.0150   40.6710 C.ar  284  PHE284     -0.0042
    145  CD2        0.1330   14.1830   42.6840 C.ar  284  PHE284     -0.0042
    146  CE1        1.2400   11.9570   41.4220 C.ar  284  PHE284     -0.0003
    147  CE2        0.6440   13.1260   43.4430 C.ar  284  PHE284     -0.0003
    148  CZ         1.1970   12.0140   42.8070 C.ar  284  PHE284     -0.0000
@<TRIPOS>BOND
     1   117   118    1
     2   118   121    1
     3   118   119    1
     4   121   122    1
     5   119   120    2
     6   122   123    1
     7   109   108    2
     8   124   123    1
     9   125   126    1
    10   126   127    1
    11   108   107    1
    12   127   128    2
    13   127   129   am
    14   110   107    1
    15   110   111    1
    16   107   106    1
    17   138   139    1
    18   103   101   ar
    19   103   104   ar
    20   111   112   ar
    21   111   113   ar
    22   129   130    1
    23   112   114   ar
    24   105   104    1
    25   101    99   ar
    26    50    49    2
    27   113   115   ar
    28   139   142    1
    29   139   140    1
    30    49    48    1
    31   104   102   ar
    32   114   116   ar
    33   115   116   ar
    34   142   143    1
    35    97    96    2
    36   131   130    1
    37   131   132    2
    38   144   143   ar
    39   144   146   ar
    40   130   133    1
    41   140   141    2
    42    99    98    1
    43    99   100   ar
    44    51    48    1
    45    51    52    1
    46    48    47    1
    47    38    37   ar
    48   143   145   ar
    49   102   100   ar
    50   146   148   ar
    51    98    95    1
    52    96    95    1
    53    95    94    1
    54   133   134    1
    55   137   135   am
    56    53    52    1
    57   134   135    1
    58    39    37   ar
    59    37    36    1
    60    52    54    1
    61    89    88    2
    62   145   147   ar
    63   135   136    2
    64    31    32    1
    65   148   147   ar
    66    94    88   am
    67    88    87    1
    68    92    90    1
    69    36    35    1
    70    35    32    1
    71    32    33    1
    72    33    34    2
    73    21    19   ar
    74    21    22   ar
    75    43    42    2
    76    42    41    1
    77    87    90    1
    78    87    86    1
    79    90    91    1
    80    19    18   ar
    81    84    83    2
    82    22    20   ar
    83    67    65    1
    84    83    82    1
    85    18    20   ar
    86    18    17    1
    87    91    93    1
    88    41    40    1
    89    41    44    1
    90    66    65    1
    91    85    82    1
    92    82    81    1
    93     8    10   ar
    94     8     6   ar
    95    65    64    1
    96    29    28   ar
    97     5     6    1
    98     5     2    1
    99    45    44    1
   100    17    14    1
   101    10    11   ar
   102    44    46    1
   103     6     7   ar
   104     1     2    1
   105    13    14    1
   106    13     3   am
   107    79    78    1
   108    28    30   ar
   109    28    27    1
   110     2     3    1
   111    64    61    1
   112    14    15    1
   113    11    12    1
   114    11     9   ar
   115     7     9   ar
   116     3     4    2
   117    26    25    2
   118    27    24    1
   119    16    15    2
   120    78    80    1
   121    78    75    1
   122    24    25    1
   123    24    23    1
   124    61    60    1
   125    61    62    1
   126    59    56    1
   127    58    57    2
   128    60    57   am
   129    73    72    1
   130    57    56    1
   131    63    62    2
   132    56    55    1
   133    75    74    1
   134    75    76    1
   135    74    70   am
   136    72    69    1
   137    77    76    2
   138    70    69    1
   139    70    71    2
   140    68    69    1
