@<TRIPOS>MOLECULE
tmp/2ouzA00.pdb
 199 186 0 0 0
SMALL
GASTEIGER

@<TRIPOS>ATOM
      1  N         35.5570   -7.2800   31.1540 N.3    38  MET38      -0.1245
      2  CA        35.5420   -6.6470   29.8310 C.3    38  MET38       0.1570
      3  C         34.9550   -7.5740   28.7750 C.2    38  MET38       0.2261
      4  O         34.2500   -7.1490   27.8880 O.2    38  MET38      -0.2867
      5  CB        36.9330   -6.1540   29.4110 C.3    38  MET38       0.0387
      6  CG        36.9110   -5.3500   28.0780 C.3    38  MET38       0.0595
      7  SD        35.6700   -3.9780   28.0510 S.3    38  MET38      -0.1393
      8  CE        36.2170   -2.9940   26.6790 C.3    38  MET38       0.0692
      9  N         31.2000   -7.4930   29.0180 N.3    41  LEU41      -0.1231
     10  CA        30.6290   -6.2560   28.4920 C.3    41  LEU41       0.1693
     11  C         30.7970   -6.1660   26.9920 C.2    41  LEU41       0.2592
     12  O         29.9190   -5.6840   26.3080 O.2    41  LEU41      -0.2718
     13  CB        31.2890   -5.0610   29.1620 C.3    41  LEU41       0.0284
     14  CG        31.1430   -4.9400   30.6690 C.3    41  LEU41       0.0019
     15  CD1       31.9150   -3.7140   31.0720 C.3    41  LEU41       0.0001
     16  CD2       29.7020   -4.8730   31.0900 C.3    41  LEU41       0.0001
     17  N         31.9500   -6.6010   26.4950 N.am   42  THR42      -0.1953
     18  CA        32.1850   -6.7460   25.0530 C.3    42  THR42       0.1897
     19  C         31.1680   -7.6660   24.4110 C.2    42  THR42       0.2313
     20  O         30.6560   -7.3200   23.3680 O.2    42  THR42      -0.2863
     21  CB        33.5610   -7.2680   24.8050 C.3    42  THR42       0.1794
     22  OG1       34.5160   -6.2980   25.2740 O.3    42  THR42      -0.2208
     23  CG2       33.8160   -7.6040   23.3290 C.3    42  THR42       0.0378
     24  N         28.1790   -8.3870   25.4360 N.3    44  LEU44      -0.1231
     25  CA        26.8700   -7.8020   25.5080 C.3    44  LEU44       0.1693
     26  C         26.6990   -6.7330   24.4520 C.2    44  LEU44       0.2592
     27  O         25.7270   -6.7660   23.6850 O.2    44  LEU44      -0.2718
     28  CB        26.6670   -7.2470   26.9130 C.3    44  LEU44       0.0284
     29  CG        25.3990   -6.4810   27.2610 C.3    44  LEU44       0.0019
     30  CD1       24.0860   -7.2640   27.0150 C.3    44  LEU44       0.0001
     31  CD2       25.5370   -6.0170   28.7820 C.3    44  LEU44       0.0001
     32  N         27.6560   -5.8140   24.4160 N.am   45  ALA45      -0.1966
     33  CA        27.6970   -4.6820   23.5020 C.3    45  ALA45       0.1728
     34  C         27.5700   -5.1450   22.0380 C.2    45  ALA45       0.2616
     35  O         26.8190   -4.5630   21.2650 O.2    45  ALA45      -0.2715
     36  CB        29.0080   -3.9130   23.7180 C.3    45  ALA45       0.0334
     37  N         28.2930   -6.1970   21.6980 N.am   46  ASP46      -0.1971
     38  CA        28.2710   -6.7520   20.3800 C.3    46  ASP46       0.1709
     39  C         26.9150   -7.3540   19.9980 C.2    46  ASP46       0.2293
     40  O         26.4910   -7.2010   18.8510 O.2    46  ASP46      -0.2864
     41  CB        29.3390   -7.7930   20.2470 C.3    46  ASP46       0.1436
     42  CG        30.7320   -7.2130   20.2140 C.2    46  ASP46       0.3671
     43  OD1       30.9000   -6.0050   20.1140 O.co2  46  ASP46      -0.2456
     44  OD2       31.6670   -8.0130   20.2290 O.co2  46  ASP46      -0.2456
     45  N         24.1080   -6.2320   21.3300 N.3    48  GLU48      -0.1231
     46  CA        23.2360   -5.0660   21.2980 C.3    48  GLU48       0.1699
     47  C         23.3540   -4.3180   19.9580 C.2    48  GLU48       0.2592
     48  O         22.4670   -3.6010   19.5270 O.2    48  GLU48      -0.2718
     49  CB        23.6260   -4.0860   22.4200 C.3    48  GLU48       0.0402
     50  CG        23.1610   -4.5110   23.7690 C.3    48  GLU48       0.1161
     51  CD        23.4300   -3.4600   24.7860 C.2    48  GLU48       0.3649
     52  OE1       22.5510   -2.5890   24.9710 O.co2  48  GLU48      -0.2457
     53  OE2       24.5580   -3.4370   25.3250 O.co2  48  GLU48      -0.2457
     54  N         24.4830   -4.4460   19.3210 N.am   49  LEU49      -0.1980
     55  CA        24.6930   -3.6770   18.0950 C.3    49  LEU49       0.1596
     56  C         23.8000   -4.1820   16.9680 C.2    49  LEU49       0.2287
     57  O         23.2550   -3.3770   16.2400 O.2    49  LEU49      -0.2864
     58  CB        26.1670   -3.7520   17.7120 C.3    49  LEU49       0.0297
     59  CG        26.6790   -2.9970   16.5150 C.3    49  LEU49       0.0022
     60  CD1       26.5380   -1.5440   16.7040 C.3    49  LEU49       0.0001
     61  CD2       28.0720   -3.3930   16.3560 C.3    49  LEU49       0.0001
     62  N         27.4470    4.7320   17.5380 N.3    78  TRP78      -0.1227
     63  CA        26.9740    3.4800   18.1950 C.3    78  TRP78       0.1737
     64  C         27.3050    3.4610   19.6870 C.2    78  TRP78       0.2595
     65  O         26.5060    2.9420   20.4720 O.2    78  TRP78      -0.2718
     66  CB        27.5570    2.2100   17.4950 C.3    78  TRP78       0.0564
     67  CG        29.0140    2.1370   17.6090 C.ar   78  TRP78       0.0003
     68  CD1       29.9430    2.7560   16.8320 C.ar   78  TRP78       0.0946
     69  CD2       29.7400    1.4030   18.5890 C.ar   78  TRP78       0.0152
     70  NE1       31.2060    2.4810   17.2860 N.ar   78  TRP78      -0.2442
     71  CE2       31.1060    1.6650   18.3810 C.ar   78  TRP78       0.0810
     72  CE3       29.3660    0.6100   19.6590 C.ar   78  TRP78       0.0012
     73  CZ2       32.0690    1.1070   19.1500 C.ar   78  TRP78       0.0191
     74  CZ3       30.3440    0.0950   20.4640 C.ar   78  TRP78       0.0001
     75  CH2       31.6570    0.3570   20.2250 C.ar   78  TRP78       0.0015
     76  N         28.4760    4.0170   20.0660 N.am   79  LEU79      -0.1980
     77  CA        28.9120    3.9470   21.4760 C.3    79  LEU79       0.1596
     78  C         28.1490    4.9240   22.3530 C.2    79  LEU79       0.2287
     79  O         27.6730    4.5670   23.4240 O.2    79  LEU79      -0.2864
     80  CB        30.4370    4.0460   21.6390 C.3    79  LEU79       0.0297
     81  CG        30.8340    3.8860   23.1420 C.3    79  LEU79       0.0022
     82  CD1       30.4510    2.5270   23.7170 C.3    79  LEU79       0.0001
     83  CD2       32.2820    4.0230   23.2250 C.3    79  LEU79       0.0001
     84  N         24.7450    3.0050   22.9220 N.3    82  LEU82      -0.1231
     85  CA        24.8790    2.0080   24.0150 C.3    82  LEU82       0.1693
     86  C         24.9200    2.6740   25.3970 C.2    82  LEU82       0.2591
     87  O         24.2520    2.1950   26.3350 O.2    82  LEU82      -0.2718
     88  CB        26.1140    1.1630   23.9000 C.3    82  LEU82       0.0284
     89  CG        26.1920    0.1930   22.7180 C.3    82  LEU82       0.0019
     90  CD1       27.4520   -0.5650   22.8100 C.3    82  LEU82       0.0001
     91  CD2       24.9450   -0.7180   22.6830 C.3    82  LEU82       0.0001
     92  N         25.6630    3.7820   25.4920 N.am   83  MET83      -0.1979
     93  CA        25.8030    4.4960   26.7270 C.3    83  MET83       0.1605
     94  C         24.5400    5.1790   27.2020 C.2    83  MET83       0.2287
     95  O         24.1950    5.0900   28.4180 O.2    83  MET83      -0.2864
     96  CB        26.9100    5.5250   26.6160 C.3    83  MET83       0.0413
     97  CG        28.2510    4.9280   26.6080 C.3    83  MET83       0.0598
     98  SD        29.5640    6.1700   26.4300 S.3    83  MET83      -0.1393
     99  CE        30.9560    5.2890   26.8740 C.3    83  MET83       0.0692
    100  N         22.3000    2.5100   28.5660 N.3    86  LEU86      -0.1245
    101  CA        22.8130    2.0670   29.8600 C.3    86  LEU86       0.1561
    102  C         22.3960    3.0290   30.9740 C.2    86  LEU86       0.2260
    103  O         21.9050    2.6070   32.0200 O.2    86  LEU86      -0.2867
    104  CB        24.3460    1.8840   29.7780 C.3    86  LEU86       0.0270
    105  CG        25.0740    1.6580   31.1050 C.3    86  LEU86       0.0019
    106  CD1       24.5120    0.3840   31.7990 C.3    86  LEU86       0.0001
    107  CD2       26.5670    1.6130   30.8830 C.3    86  LEU86       0.0001
    108  N         18.5250    2.8020   31.7000 N.3    89  ARG89      -0.1245
    109  CA        18.1530    1.7040   32.5520 C.3    89  ARG89       0.1563
    110  C         18.7990    1.6990   33.9590 C.2    89  ARG89       0.2260
    111  O         18.3560    0.9640   34.8370 O.2    89  ARG89      -0.2867
    112  CB        18.2930    0.3790   31.7970 C.3    89  ARG89       0.0307
    113  CG        19.5930    0.0670   31.2920 C.3    89  ARG89       0.0489
    114  CD        19.5690   -1.2790   30.5060 C.3    89  ARG89       0.2205
    115  NE        20.9370   -1.6580   30.1620 N.pl3  89  ARG89      -0.0865
    116  CZ        21.5410   -1.3570   29.0060 C.cat  89  ARG89       0.5346
    117  NH1       20.9010   -0.6990   28.0150 N.pl3  89  ARG89       0.1354
    118  NH2       22.7910   -1.7470   28.8240 N.pl3  89  ARG89       0.1354
    119  N         24.0360   -2.8680   33.3870 N.3    99  PHE99      -0.1241
    120  CA        24.4800   -3.2510   32.0670 C.3    99  PHE99       0.1605
    121  C         23.4590   -4.2110   31.4440 C.2    99  PHE99       0.2264
    122  O         23.1520   -4.1600   30.2450 O.2    99  PHE99      -0.2867
    123  CB        25.9010   -3.8450   32.1240 C.3    99  PHE99       0.0534
    124  CG        27.0020   -2.8130   32.3640 C.ar   99  PHE99      -0.0203
    125  CD1       27.5460   -2.0560   31.3030 C.ar   99  PHE99      -0.0042
    126  CD2       27.5130   -2.6110   33.6410 C.ar   99  PHE99      -0.0042
    127  CE1       28.5820   -1.0930   31.5440 C.ar   99  PHE99      -0.0003
    128  CE2       28.5280   -1.6500   33.8750 C.ar   99  PHE99      -0.0003
    129  CZ        29.0500   -0.8980   32.8100 C.ar   99  PHE99      -0.0000
    130  N         37.8740    1.4550   33.1470 N.3   116  MET116     -0.1245
    131  CA        36.4710    1.8280   33.3650 C.3   116  MET116      0.1570
    132  C         36.2750    2.7390   34.5460 C.2   116  MET116      0.2261
    133  O         35.4430    3.5840   34.4510 O.2   116  MET116     -0.2867
    134  CB        35.5220    0.6010   33.5350 C.3   116  MET116      0.0387
    135  CG        34.5530    0.3050   32.3560 C.3   116  MET116      0.0595
    136  SD        32.7650    0.0760   32.7570 S.3   116  MET116     -0.1393
    137  CE        32.7370   -1.2150   34.0060 C.3   116  MET116      0.0692
    138  N         35.2810    5.8980   33.2500 N.3   119  ILE119     -0.1245
    139  CA        34.0810    5.8410   32.3990 C.3   119  ILE119      0.1561
    140  C         32.8880    5.5240   33.3030 C.2   119  ILE119      0.2260
    141  O         31.8560    6.1420   33.2310 O.2   119  ILE119     -0.2867
    142  CB        34.2800    4.7720   31.3050 C.3   119  ILE119      0.0252
    143  CG1       35.2070    5.3540   30.2290 C.3   119  ILE119      0.0019
    144  CG2       32.9700    4.2980   30.6580 C.3   119  ILE119      0.0019
    145  CD1       35.9300    4.2770   29.4540 C.3   119  ILE119      0.0001
    146  N         29.4360    7.6840   33.6040 N.3   123  LEU123     -0.1245
    147  CA        28.1530    7.0840   33.2910 C.3   123  LEU123      0.1561
    148  C         27.1610    7.1950   34.4640 C.2   123  LEU123      0.2260
    149  O         25.9680    7.4430   34.2880 O.2   123  LEU123     -0.2867
    150  CB        28.3300    5.6020   32.9380 C.3   123  LEU123      0.0270
    151  CG        29.0270    5.3610   31.5900 C.3   123  LEU123      0.0019
    152  CD1       29.6800    4.0290   31.5320 C.3   123  LEU123      0.0001
    153  CD2       28.0630    5.5040   30.4810 C.3   123  LEU123      0.0001
    154  N         35.6700    6.1700   26.0030 N.3   216  GLY216     -0.1225
    155  CA        35.4860    4.7470   25.8780 C.3   216  GLY216      0.1811
    156  C         36.1460    4.2350   24.6100 C.2   216  GLY216      0.2280
    157  O         36.7850    3.1930   24.6480 O.2   216  GLY216     -0.2866
    158  N         39.8820    3.6610   25.0920 N.3   219  HIS219     -0.1226
    159  CA        40.0960    2.3540   25.7260 C.3   219  HIS219      0.1752
    160  C         39.9410    1.1850   24.7290 C.2   219  HIS219      0.2595
    161  O         40.7510    0.2640   24.7010 O.2   219  HIS219     -0.2718
    162  CB        39.0810    2.2030   26.8460 C.3   219  HIS219      0.0759
    163  CG        39.4350    1.1490   27.8480 C.ar  219  HIS219      0.0818
    164  ND1       39.0660    1.2450   29.1760 N.ar  219  HIS219     -0.2268
    165  CD2       40.1760    0.0140   27.7410 C.ar  219  HIS219      0.1154
    166  CE1       39.5320    0.2020   29.8350 C.ar  219  HIS219      0.1986
    167  NE2       40.2240   -0.5530   28.9920 N.ar  219  HIS219     -0.2212
    168  N         38.9250    1.2320   23.8780 N.am  220  LEU220     -0.1980
    169  CA        38.6510    0.1220   22.9590 C.3   220  LEU220      0.1596
    170  C         39.6720   -0.0030   21.8070 C.2   220  LEU220      0.2287
    171  O         39.9570   -1.1230   21.3440 O.2   220  LEU220     -0.2864
    172  CB        37.2420    0.2420   22.4040 C.3   220  LEU220      0.0297
    173  CG        36.1550    0.2240   23.5030 C.3   220  LEU220      0.0022
    174  CD1       34.8140    0.5140   22.9050 C.3   220  LEU220      0.0001
    175  CD2       36.1400   -1.0610   24.3110 C.3   220  LEU220      0.0001
    176  N         42.9530   -1.6940   22.4370 N.3   223  MET223     -0.1196
    177  CA        42.7820   -3.1530   22.5940 C.3   223  MET223      0.1786
    178  C         42.1590   -3.7960   21.3280 C.2   223  MET223      0.2306
    179  O         41.2870   -4.6810   21.4190 O.2   223  MET223     -0.2863
    180  CB        41.8870   -3.4520   23.8230 C.2   223  MET223      0.0070
    181  CG        40.3550   -3.2390   23.6150 C.2   223  MET223      0.0282
    182  SD        39.3250   -3.5440   25.0780 S.3   223  MET223     -0.1125
    183  CE        38.0280   -4.6250   24.4030 C.3   223  MET223      0.0742
    184  N         34.9630   -1.8480   11.4680 N.3   231  LEU231     -0.1245
    185  CA        33.5980   -1.6370   11.9740 C.3   231  LEU231      0.1561
    186  C         32.6880   -1.1430   10.8610 C.2   231  LEU231      0.2260
    187  O         31.5620   -1.5810   10.7670 O.2   231  LEU231     -0.2867
    188  CB        33.5470   -0.6230   13.1310 C.3   231  LEU231      0.0270
    189  CG        32.5490   -0.7840   14.2990 C.3   231  LEU231      0.0019
    190  CD1       32.1340    0.6090   14.7840 C.3   231  LEU231      0.0001
    191  CD2       31.3110   -1.6800   14.1010 C.3   231  LEU231      0.0001
    192  N         31.5540   -4.1900    9.0930 N.3   234  LEU234     -0.1245
    193  CA        30.5280   -4.9530    9.8510 C.3   234  LEU234      0.1561
    194  C         29.1640   -4.2490    9.8040 C.2   234  LEU234      0.2260
    195  O         28.0930   -4.8790    9.6170 O.2   234  LEU234     -0.2867
    196  CB        30.9940   -5.1210   11.3100 C.3   234  LEU234      0.0270
    197  CG        30.1230   -5.9620   12.2480 C.3   234  LEU234      0.0019
    198  CD1       30.2020   -7.4190   11.8470 C.3   234  LEU234      0.0001
    199  CD2       30.5110   -5.8230   13.7350 C.3   234  LEU234      0.0001
@<TRIPOS>BOND
     1   192   193    1
     2   195   194    2
     3   194   193    1
     4   193   196    1
     5   187   186    2
     6   186   185    1
     7   196   197    1
     8   184   185    1
     9   198   197    1
    10   185   188    1
    11   197   199    1
    12   188   189    1
    13   191   189    1
    14   189   190    1
    15    57    56    2
    16    61    59    1
    17    59    60    1
    18    59    58    1
    19    68    70   ar
    20    68    67   ar
    21    56    55    1
    22    70    71   ar
    23    66    67    1
    24    66    63    1
    25    62    63    1
    26    67    69   ar
    27    58    55    1
    28    55    54    1
    29    63    64    1
    30    71    69   ar
    31    71    73   ar
    32    69    72   ar
    33    40    39    2
    34    73    75   ar
    35    54    47   am
    36    48    47    2
    37    72    74   ar
    38    64    76   am
    39    64    65    2
    40    47    46    1
    41    39    38    1
    42    76    77    1
    43    43    42   ar
    44    42    44   ar
    45    42    41    1
    46    75    74   ar
    47    41    38    1
    48    38    37    1
    49    35    34    2
    50    46    45    1
    51    46    49    1
    52   178   179    2
    53   178   177    1
    54   171   170    2
    55    77    80    1
    56    77    78    1
    57    80    81    1
    58    37    34   am
    59   170   169    1
    60    34    33    1
    61    78    79    2
    62   172   169    1
    63   172   173    1
    64    49    50    1
    65   176   177    1
    66   177   180    1
    67    91    89    1
    68    89    90    1
    69    89    88    1
    70   174   173    1
    71    84    85    1
    72   169   168    1
    73    81    83    1
    74    81    82    1
    75    23    21    1
    76    20    19    2
    77    33    36    1
    78    33    32    1
    79   173   175    1
    80   181   180    2
    81   181   182    1
    82    27    26    2
    83    50    51    1
    84   168   160   am
    85    88    85    1
    86    85    86    1
    87   183   182    1
    88    19    18    1
    89    32    26   am
    90    26    25    1
    91   156   157    2
    92   156   155    1
    93   161   160    2
    94   160   159    1
    95    51    52   ar
    96    51    53   ar
    97    21    18    1
    98    21    22    1
    99    18    17    1
   100   158   159    1
   101    86    92   am
   102    86    87    2
   103    24    25    1
   104    92    93    1
   105    25    28    1
   106   159   162    1
   107   155   154    1
   108    12    11    2
   109    98    97    1
   110    98    99    1
   111    17    11   am
   112    97    96    1
   113    96    93    1
   114     8     7    1
   115    93    94    1
   116   162   163    1
   117    28    29    1
   118    11    10    1
   119    30    29    1
   120    94    95    2
   121    29    31    1
   122   165   163   ar
   123   165   167   ar
   124   163   164   ar
   125     4     3    2
   126   117   116    1
   127     7     6    1
   128     6     5    1
   129    10     9    1
   130    10    13    1
   131   100   101    1
   132     3     2    1
   133   118   116    1
   134   167   166   ar
   135   116   115    2
   136    13    14    1
   137   164   166   ar
   138     5     2    1
   139   145   143    1
   140   104   101    1
   141   104   105    1
   142     2     1    1
   143   101   102    1
   144   115   114    1
   145   143   142    1
   146   122   121    2
   147   153   151    1
   148   114   113    1
   149   144   142    1
   150    14    15    1
   151    14    16    1
   152   107   105    1
   153   102   103    2
   154   105   106    1
   155   113   112    1
   156   125   127   ar
   157   125   124   ar
   158   142   139    1
   159   121   120    1
   160   152   151    1
   161   127   129   ar
   162   151   150    1
   163   108   109    1
   164   112   109    1
   165   120   123    1
   166   120   119    1
   167   123   124    1
   168   135   136    1
   169   135   134    1
   170   124   126   ar
   171   139   138    1
   172   139   140    1
   173   109   110    1
   174   136   137    1
   175   129   128   ar
   176   150   147    1
   177   130   131    1
   178   141   140    2
   179   147   146    1
   180   147   148    1
   181   131   134    1
   182   131   132    1
   183   126   128   ar
   184   110   111    2
   185   149   148    2
   186   133   132    2
