@<TRIPOS>MOLECULE
tmp/2ov2H00.pdb
 174 170 0 0 0
SMALL
GASTEIGER

@<TRIPOS>ATOM
      1  N         -5.2070  -24.7680  -27.5290 N.3    13  GLY13      -0.1210
      2  CA        -5.5630  -23.4210  -27.1020 C.3    13  GLY13       0.1956
      3  C         -4.3930  -22.7180  -26.4200 C.2    13  GLY13       0.2612
      4  O         -3.5430  -23.3520  -25.7920 O.2    13  GLY13      -0.2717
      5  N         -4.3810  -21.3990  -26.5430 N.am   14  ALA14      -0.1965
      6  CA        -3.3610  -20.5230  -25.9760 C.3    14  ALA14       0.1728
      7  C         -1.9390  -20.6760  -26.5620 C.2    14  ALA14       0.2616
      8  O         -0.9940  -20.0670  -26.0280 O.2    14  ALA14      -0.2715
      9  CB        -3.3360  -20.6510  -24.4330 C.3    14  ALA14       0.0334
     10  N         -1.7590  -21.4260  -27.6540 N.am   15  VAL15      -0.1963
     11  CA        -0.3830  -21.6510  -28.1650 C.3    15  VAL15       0.1727
     12  C          0.1720  -20.4750  -29.0040 C.2    15  VAL15       0.2617
     13  O          1.3880  -20.3290  -29.1030 O.2    15  VAL15      -0.2715
     14  CB        -0.1860  -23.0010  -28.9360 C.3    15  VAL15       0.0290
     15  CG1       -0.8120  -24.1700  -28.1930 C.3    15  VAL15       0.0023
     16  CG2       -0.6630  -22.9050  -30.3860 C.3    15  VAL15       0.0023
     17  N         -0.7020  -19.6510  -29.5870 N.am   16  GLY16      -0.1940
     18  CA        -0.2930  -18.4700  -30.3510 C.3    16  GLY16       0.2014
     19  C         -0.5310  -18.5580  -31.8550 C.2    16  GLY16       0.2639
     20  O          0.1550  -17.9090  -32.6230 O.2    16  GLY16      -0.2714
     21  N         -1.5020  -19.3590  -32.2860 N.am   17  LYS17      -0.1963
     22  CA        -1.7870  -19.5300  -33.7010 C.3    17  LYS17       0.1728
     23  C         -2.2330  -18.2290  -34.3470 C.2    17  LYS17       0.2617
     24  O         -1.7830  -17.8740  -35.4320 O.2    17  LYS17      -0.2715
     25  CB        -2.8670  -20.5960  -33.9010 C.3    17  LYS17       0.0311
     26  CG        -2.4860  -21.9840  -33.3940 C.3    17  LYS17       0.0038
     27  CD        -3.5750  -23.0380  -33.7140 C.3    17  LYS17       0.0206
     28  CE        -4.8670  -22.7980  -32.9300 C.3    17  LYS17       0.1093
     29  NZ        -4.6500  -22.7670  -31.4470 N.3    17  LYS17      -0.1314
     30  N         -3.1380  -17.5170  -33.6950 N.am   18  THR18      -0.1937
     31  CA        -3.6790  -16.3090  -34.2940 C.3    18  THR18       0.2028
     32  C         -2.6240  -15.2040  -34.3280 C.2    18  THR18       0.2642
     33  O         -2.4360  -14.5500  -35.3630 O.2    18  THR18      -0.2714
     34  CB        -4.9410  -15.8650  -33.5750 C.3    18  THR18       0.1808
     35  OG1       -5.9400  -16.8730  -33.7600 O.3    18  THR18      -0.2208
     36  CG2       -5.4500  -14.5250  -34.1030 C.3    18  THR18       0.0379
     37  N         -1.9260  -15.0130  -33.2150 N.am   19  CYS19      -0.1967
     38  CA        -0.8730  -14.0010  -33.1620 C.3    19  CYS19       0.1712
     39  C          0.1770  -14.1960  -34.2470 C.2    19  CYS19       0.2296
     40  O          0.5870  -13.2430  -34.8810 O.2    19  CYS19      -0.2864
     41  CB        -0.2050  -13.9790  -31.7890 C.3    19  CYS19       0.0983
     42  SG        -1.2350  -13.2030  -30.5430 S.3    19  CYS19      -0.0798
     43  N          1.0520   -7.1020  -33.4760 N.3    29  PHE29      -0.1228
     44  CA         0.7490   -8.1240  -32.4890 C.3    29  PHE29       0.1721
     45  C         -0.5960   -7.7490  -31.8650 C.2    29  PHE29       0.2437
     46  O         -0.7550   -6.6380  -31.3570 O.2    29  PHE29      -0.2733
     47  CB         1.8420   -8.1470  -31.4110 C.3    29  PHE29       0.0547
     48  CG         1.7950   -9.3530  -30.5140 C.ar   29  PHE29      -0.0202
     49  CD1        2.3220  -10.5660  -30.9330 C.ar   29  PHE29      -0.0042
     50  CD2        1.2420   -9.2720  -29.2630 C.ar   29  PHE29      -0.0042
     51  CE1        2.3000  -11.6730  -30.1230 C.ar   29  PHE29      -0.0003
     52  CE2        1.2050  -10.3880  -28.4360 C.ar   29  PHE29      -0.0003
     53  CZ         1.7420  -11.5930  -28.8780 C.ar   29  PHE29      -0.0000
     54  N         -1.5800   -8.6620  -31.9230 N.am   30  PRO30      -0.2729
     55  CA        -2.8600   -8.4410  -31.2580 C.3    30  PRO30       0.1401
     56  C         -2.7320   -7.9770  -29.8120 C.2    30  PRO30       0.2269
     57  O         -1.9490   -8.5410  -29.0360 O.2    30  PRO30      -0.2865
     58  CB        -3.5180   -9.8240  -31.3190 C.3    30  PRO30       0.0296
     59  CG        -2.9800  -10.4120  -32.5410 C.3    30  PRO30       0.0237
     60  CD        -1.5700   -9.9420  -32.6550 C.3    30  PRO30       0.0939
     61  N         -5.0770   -7.9780  -27.4710 N.3    32  GLU32      -0.1231
     62  CA        -5.8590   -8.7920  -26.5480 C.3    32  GLU32       0.1699
     63  C         -5.7030  -10.2810  -26.8690 C.2    32  GLU32       0.2592
     64  O         -5.2540  -10.6590  -27.9530 O.2    32  GLU32      -0.2718
     65  CB        -7.3430   -8.3960  -26.6110 C.3    32  GLU32       0.0402
     66  CG        -7.4950   -6.8940  -26.4050 C.3    32  GLU32       0.1161
     67  CD        -7.3510   -6.4340  -24.9790 C.2    32  GLU32       0.3649
     68  OE1       -7.1430   -7.2930  -24.1190 O.co2  32  GLU32      -0.2457
     69  OE2       -7.4490   -5.1970  -24.7130 O.co2  32  GLU32      -0.2457
     70  N         -6.0550  -11.1060  -25.8910 N.am   33  TYR33      -0.1962
     71  CA        -6.0940  -12.5380  -26.0590 C.3    33  TYR33       0.1771
     72  C         -7.5600  -12.9390  -26.1640 C.2    33  TYR33       0.2619
     73  O         -8.2950  -12.8760  -25.1730 O.2    33  TYR33      -0.2715
     74  CB        -5.4110  -13.2150  -24.8700 C.3    33  TYR33       0.0574
     75  CG        -5.6370  -14.7090  -24.7790 C.ar   33  TYR33      -0.0198
     76  CD1       -5.8900  -15.4800  -25.9190 C.ar   33  TYR33      -0.0009
     77  CD2       -5.5600  -15.3530  -23.5680 C.ar   33  TYR33      -0.0009
     78  CE1       -6.0780  -16.8350  -25.8370 C.ar   33  TYR33       0.0417
     79  CE2       -5.7400  -16.7110  -23.4840 C.ar   33  TYR33       0.0417
     80  CZ        -5.9990  -17.4460  -24.6300 C.ar   33  TYR33       0.1957
     81  OH        -6.2040  -18.7880  -24.5440 O.3    33  TYR33      -0.2866
     82  N         -7.9700  -13.3030  -27.3820 N.am   34  ILE34      -0.1964
     83  CA        -9.3460  -13.6580  -27.7040 C.3    34  ILE34       0.1712
     84  C         -9.3010  -14.9540  -28.4900 C.2    34  ILE34       0.2458
     85  O         -8.8920  -14.9480  -29.6410 O.2    34  ILE34      -0.2730
     86  CB       -10.0470  -12.5730  -28.5660 C.3    34  ILE34       0.0289
     87  CG1      -10.0390  -11.2050  -27.8440 C.3    34  ILE34       0.0022
     88  CG2      -11.4750  -12.9930  -28.8780 C.3    34  ILE34       0.0023
     89  CD1      -10.6280  -10.0540  -28.6750 C.3    34  ILE34       0.0001
     90  N         -9.6780  -16.0870  -27.8580 N.am   35  PRO35      -0.2716
     91  CA        -9.7360  -17.3680  -28.5490 C.3    35  PRO35       0.1536
     92  C        -10.5640  -17.3390  -29.8340 C.2    35  PRO35       0.2599
     93  O        -11.5570  -16.6150  -29.9260 O.2    35  PRO35      -0.2715
     94  CB       -10.3700  -18.2940  -27.5190 C.3    35  PRO35       0.0310
     95  CG       -10.0040  -17.7270  -26.2230 C.3    35  PRO35       0.0237
     96  CD       -10.0160  -16.2320  -26.4350 C.3    35  PRO35       0.0939
     97  N        -10.1350  -18.1430  -30.8020 N.am   36  THR36      -0.1951
     98  CA       -10.7200  -18.2000  -32.1390 C.3    36  THR36       0.1897
     99  C        -11.8020  -19.2790  -32.1670 C.2    36  THR36       0.2313
    100  O        -11.6710  -20.3000  -31.4900 O.2    36  THR36      -0.2863
    101  CB        -9.6210  -18.5960  -33.1680 C.3    36  THR36       0.1794
    102  OG1       -8.4860  -17.7180  -33.0310 O.3    36  THR36      -0.2208
    103  CG2      -10.1550  -18.5810  -34.5960 C.3    36  THR36       0.0378
    104  N         -7.8590  -21.9320  -36.9520 N.3    59  THR59      -0.1218
    105  CA        -8.7910  -22.7980  -36.2770 C.3    59  THR59       0.1862
    106  C         -8.7200  -22.7080  -34.7530 C.2    59  THR59       0.2287
    107  O         -7.7630  -22.1730  -34.1670 O.2    59  THR59      -0.2866
    108  CB        -8.5830  -24.2890  -36.6870 C.3    59  THR59       0.1770
    109  OG1       -7.2930  -24.7400  -36.2450 O.3    59  THR59      -0.2211
    110  CG2       -8.6980  -24.4510  -38.1860 C.3    59  THR59       0.0375
    111  N         -8.2540  -23.8770  -31.0590 N.3    61  GLY61      -0.1210
    112  CA        -7.5730  -24.8000  -30.1600 C.3    61  GLY61       0.1956
    113  C         -8.5050  -25.3680  -29.1030 C.2    61  GLY61       0.2611
    114  O         -8.2050  -26.3970  -28.5020 O.2    61  GLY61      -0.2717
    115  N         -9.6230  -24.6840  -28.8510 N.am   62  GLN62      -0.1979
    116  CA       -10.6240  -25.1830  -27.9230 C.3    62  GLN62       0.1601
    117  C        -11.2230  -26.5170  -28.3770 C.2    62  GLN62       0.2287
    118  O        -11.8480  -26.6290  -29.4200 O.2    62  GLN62      -0.2864
    119  CB       -11.7480  -24.1770  -27.7230 C.3    62  GLN62       0.0394
    120  CG       -11.3940  -23.0110  -26.8510 C.3    62  GLN62       0.0908
    121  CD       -12.5040  -21.9910  -26.8240 C.2    62  GLN62       0.2608
    122  OE1      -12.5290  -21.0750  -27.6460 O.2    62  GLN62      -0.2717
    123  NE2      -13.4460  -22.1570  -25.9060 N.am   62  GLN62      -0.0878
    124  N          6.0680  -22.3670  -30.9350 N.3   116  THR116     -0.1203
    125  CA         5.7320  -20.9460  -30.8230 C.3   116  THR116      0.1994
    126  C          6.3110  -20.3350  -29.5350 C.2   116  THR116      0.2617
    127  O          6.7780  -21.0550  -28.6550 O.2   116  THR116     -0.2717
    128  CB         4.1960  -20.7530  -30.8720 C.3   116  THR116      0.1784
    129  OG1        3.6080  -21.4060  -29.7510 O.3   116  THR116     -0.2211
    130  CG2        3.5940  -21.3540  -32.1470 C.3   116  THR116      0.0376
    131  N          6.2800  -19.0020  -29.4450 N.am  117  LYS117     -0.1979
    132  CA         6.6980  -18.2600  -28.2410 C.3   117  LYS117      0.1596
    133  C          8.1810  -18.4410  -27.9140 C.2   117  LYS117      0.2287
    134  O          8.5570  -18.5160  -26.7380 O.2   117  LYS117     -0.2864
    135  CB         5.8450  -18.6330  -27.0040 C.3   117  LYS117      0.0298
    136  CG         4.3570  -18.7620  -27.2800 C.3   117  LYS117      0.0038
    137  CD         3.5030  -18.4530  -26.0660 C.3   117  LYS117      0.0206
    138  CE         2.0260  -18.7240  -26.3310 C.3   117  LYS117      0.1093
    139  NZ         1.1650  -18.4850  -25.1220 N.3   117  LYS117     -0.1314
    140  N         10.4420  -16.4190  -27.7760 N.3   119  ASP119     -0.1225
    141  CA        10.8880  -15.3410  -26.8890 C.3   119  ASP119      0.1805
    142  C         10.7480  -15.6710  -25.3970 C.2   119  ASP119      0.2597
    143  O         11.5150  -15.1800  -24.5820 O.2   119  ASP119     -0.2718
    144  CB        10.1730  -14.0290  -27.2300 C.3   119  ASP119      0.1424
    145  CG         8.6660  -14.1060  -27.0480 C.2   119  ASP119      0.3668
    146  OD1        7.9970  -14.7510  -27.8710 O.co2 119  ASP119     -0.2456
    147  OD2        8.1510  -13.5060  -26.0890 O.co2 119  ASP119     -0.2456
    148  N          9.7770  -16.5120  -25.0530 N.am  120  LEU120     -0.1979
    149  CA         9.5810  -16.9580  -23.6750 C.3   120  LEU120      0.1596
    150  C         10.5100  -18.1030  -23.2420 C.2   120  LEU120      0.2287
    151  O         10.6380  -18.3560  -22.0480 O.2   120  LEU120     -0.2864
    152  CB         8.1220  -17.3690  -23.4390 C.3   120  LEU120      0.0297
    153  CG         7.0550  -16.2940  -23.6390 C.3   120  LEU120      0.0022
    154  CD1        5.6830  -16.8480  -23.2920 C.3   120  LEU120      0.0001
    155  CD2        7.3600  -15.0290  -22.8170 C.3   120  LEU120      0.0001
    156  N          8.8610  -16.6520  -32.7720 N.3   158  SER158     -0.1202
    157  CA         8.0890  -15.7560  -31.9300 C.3   158  SER158      0.2020
    158  C          7.2790  -14.8380  -32.8260 C.2   158  SER158      0.2619
    159  O          7.8570  -14.1240  -33.6640 O.2   158  SER158     -0.2717
    160  CB         9.0130  -14.8750  -31.0900 C.3   158  SER158      0.2103
    161  OG         8.2740  -13.8090  -30.4900 O.3   158  SER158     -0.2182
    162  N          5.9600  -14.8350  -32.6430 N.am  159  ALA159     -0.1965
    163  CA         5.0830  -13.8440  -33.2820 C.3   159  ALA159      0.1728
    164  C          5.3480  -12.4160  -32.7630 C.2   159  ALA159      0.2616
    165  O          5.1220  -11.4340  -33.4790 O.2   159  ALA159     -0.2715
    166  CB         3.5920  -14.2320  -33.0770 C.3   159  ALA159      0.0334
    167  N          5.8520  -12.3150  -31.5300 N.am  160  LEU160     -0.1977
    168  CA         6.0750  -11.0380  -30.8520 C.3   160  LEU160      0.1596
    169  C          7.2910  -10.2930  -31.3800 C.2   160  LEU160      0.2287
    170  O          7.2240   -9.0820  -31.6570 O.2   160  LEU160     -0.2864
    171  CB         6.2400  -11.2910  -29.3460 C.3   160  LEU160      0.0297
    172  CG         6.4130  -10.1210  -28.3770 C.3   160  LEU160      0.0022
    173  CD1        5.0840   -9.3930  -28.1400 C.3   160  LEU160      0.0001
    174  CD2        7.0430  -10.6020  -27.0570 C.3   160  LEU160      0.0001
@<TRIPOS>BOND
     1   110   108    1
     2   104   105    1
     3   108   105    1
     4   108   109    1
     5   105   106    1
     6    24    23    2
     7    33    32    2
     8    40    39    2
     9   106   107    2
    10   103   101    1
    11    23    22    1
    12    23    30   am
    13    32    31    1
    14    32    37   am
    15    31    30    1
    16    31    34    1
    17    39    38    1
    18    36    34    1
    19    25    22    1
    20    25    26    1
    21    35    34    1
    22    27    26    1
    23    27    28    1
    24    22    21    1
    25   159   158    2
    26   165   164    2
    27    43    44    1
    28   163   166    1
    29   163   164    1
    30   163   162    1
    31    37    38    1
    32   101   102    1
    33   101    98    1
    34    38    41    1
    35    28    29    1
    36   158   162   am
    37   158   157    1
    38   156   157    1
    39   164   167   am
    40    60    59    1
    41    60    54    1
    42    20    19    2
    43    59    58    1
    44    44    45    1
    45    44    47    1
    46    21    19   am
    47    99    98    1
    48    99   100    2
    49   130   128    1
    50    98    97    1
    51   157   160    1
    52    54    45   am
    53    54    55    1
    54    45    46    2
    55    19    18    1
    56    41    42    1
    57   170   169    2
    58   167   168    1
    59    47    48    1
    60   169   168    1
    61    58    55    1
    62    55    56    1
    63   160   161    1
    64   111   112    1
    65   124   125    1
    66    49    48   ar
    67    49    51   ar
    68   128   125    1
    69   128   129    1
    70   168   171    1
    71   125   126    1
    72    97    92   am
    73    48    50   ar
    74    16    14    1
    75    18    17    1
    76   112   113    1
    77    51    53   ar
    78    93    92    2
    79    92    91    1
    80    56    57    2
    81    85    84    2
    82    17    12   am
    83   126   131   am
    84   126   127    2
    85   131   132    1
    86   118   117    2
    87   171   172    1
    88    50    52   ar
    89   113   115   am
    90   113   114    2
    91    13    12    2
    92    12    11    1
    93    14    15    1
    94    14    11    1
    95    88    86    1
    96    53    52   ar
    97   115   116    1
    98    89    87    1
    99    86    87    1
   100    86    83    1
   101    91    90    1
   102    91    94    1
   103    84    90   am
   104    84    83    1
   105   117   116    1
   106   172   173    1
   107   172   174    1
   108   132   133    1
   109   132   135    1
   110    11    10    1
   111    64    63    2
   112   116   119    1
   113   133   134    2
   114   146   145   ar
   115    90    96    1
   116   140   141    1
   117   119   120    1
   118    83    82    1
   119    10     7   am
   120   122   121    2
   121     1     2    1
   122    94    95    1
   123    61    62    1
   124    82    72   am
   125   136   135    1
   126   136   137    1
   127   144   145    1
   128   144   141    1
   129     2     3    1
   130   145   147   ar
   131   141   142    1
   132    63    62    1
   133    63    70   am
   134   120   121    1
   135   121   123   am
   136    65    62    1
   137    65    66    1
   138     7     8    2
   139     7     6    1
   140     5     3   am
   141     5     6    1
   142    96    95    1
   143     3     4    2
   144    66    67    1
   145   138   137    1
   146   138   139    1
   147    72    71    1
   148    72    73    2
   149    71    70    1
   150    71    74    1
   151     6     9    1
   152    76    78   ar
   153    76    75   ar
   154    78    80   ar
   155   142   148   am
   156   142   143    2
   157   148   149    1
   158    67    69   ar
   159    67    68   ar
   160    74    75    1
   161    75    77   ar
   162    80    81    1
   163    80    79   ar
   164   149   152    1
   165   149   150    1
   166   153   152    1
   167   153   154    1
   168   153   155    1
   169    77    79   ar
   170   150   151    2
