@<TRIPOS>MOLECULE
tmp/2ov4A00.pdb
 181 170 0 0 0
SMALL
GASTEIGER

@<TRIPOS>ATOM
      1  N         61.6290   21.7150   43.0840 N.3     6  SER6       -0.1202
      2  CA        60.4620   22.0830   42.2360 C.3     6  SER6        0.2020
      3  C         59.6900   20.8210   41.8660 C.2     6  SER6        0.2619
      4  O         60.2550   19.7420   41.6470 O.2     6  SER6       -0.2717
      5  CB        60.8630   22.8170   40.9540 C.3     6  SER6        0.2103
      6  OG        59.9710   23.8780   40.6800 O.3     6  SER6       -0.2182
      7  N         58.3760   20.9600   41.8350 N.am    7  GLY7       -0.1942
      8  CA        57.5080   19.8510   41.4660 C.3     7  GLY7        0.2014
      9  C         56.6410   20.1860   40.2550 C.2     7  GLY7        0.2639
     10  O         56.3160   21.3430   40.0070 O.2     7  GLY7       -0.2714
     11  N         56.2310   19.1430   39.5400 N.am    8  ILE8       -0.1963
     12  CA        55.3390   19.2860   38.4070 C.3     8  ILE8        0.1727
     13  C         54.2810   18.1980   38.5390 C.2     8  ILE8        0.2616
     14  O         54.6110   17.0450   38.6790 O.2     8  ILE8       -0.2715
     15  CB        56.1060   19.1610   37.0860 C.3     8  ILE8        0.0290
     16  CG1       56.8890   20.4440   36.7910 C.3     8  ILE8        0.0022
     17  CG2       55.1870   18.7350   35.9420 C.3     8  ILE8        0.0023
     18  CD1       57.9610   20.2550   35.6700 C.3     8  ILE8        0.0001
     19  N         53.0180   18.5970   38.6350 N.am    9  GLN9       -0.1977
     20  CA        51.8920   17.6650   38.7650 C.3     9  GLN9        0.1601
     21  C         51.6730   16.8020   37.5360 C.2     9  GLN9        0.2287
     22  O         51.4510   17.3430   36.4740 O.2     9  GLN9       -0.2864
     23  CB        50.6340   18.4790   38.8030 C.3     9  GLN9        0.0394
     24  CG        50.2160   18.8910   40.0940 C.3     9  GLN9        0.0908
     25  CD        48.7880   19.2880   40.0490 C.2     9  GLN9        0.2608
     26  OE1       47.9190   18.4730   40.2310 O.2     9  GLN9       -0.2717
     27  NE2       48.5340   20.5010   39.6460 N.am    9  GLN9       -0.0878
     28  N         49.0860   15.7640   36.0660 N.3    11  SER11      -0.1217
     29  CA        47.6800   15.9700   35.7260 C.3    11  SER11       0.1889
     30  C         47.3590   16.1540   34.2070 C.2    11  SER11       0.2288
     31  O         46.2380   16.5050   33.8190 O.2    11  SER11      -0.2866
     32  CB        47.1640   17.1960   36.4590 C.3    11  SER11       0.2089
     33  OG        47.7900   18.3020   35.8680 O.3    11  SER11      -0.2183
     34  N         54.0300   26.0160   28.2510 N.3    17  GLY17      -0.1210
     35  CA        53.9050   26.9700   29.3510 C.3    17  GLY17       0.1956
     36  C         54.6810   26.4460   30.5500 C.2    17  GLY17       0.2611
     37  O         55.4800   27.1630   31.1240 O.2    17  GLY17      -0.2717
     38  N         54.5110   25.1670   30.8730 N.am   18  ASN18      -0.1974
     39  CA        55.2550   24.5690   31.9820 C.3    18  ASN18       0.1688
     40  C         56.7510   24.5400   31.6400 C.2    18  ASN18       0.2292
     41  O         57.5910   24.5520   32.5300 O.2    18  ASN18      -0.2864
     42  CB        54.8220   23.1160   32.2830 C.3    18  ASN18       0.1181
     43  CG        53.3280   22.9500   32.5040 C.2    18  ASN18       0.2629
     44  OD1       52.6740   22.1790   31.7780 O.2    18  ASN18      -0.2716
     45  ND2       52.8490   23.4350   33.6450 N.am   18  ASN18      -0.0877
     46  N         58.2120   28.4060   31.6640 N.3    21  GLY21      -0.1210
     47  CA        58.1600   29.0040   33.0020 C.3    21  GLY21       0.1956
     48  C         58.9260   28.2670   34.0980 C.2    21  GLY21       0.2611
     49  O         59.2110   28.8330   35.1620 O.2    21  GLY21      -0.2717
     50  N         59.0630   26.9600   33.9270 N.am   22  ALA22      -0.1979
     51  CA        59.8600   26.1950   34.8880 C.3    22  ALA22       0.1597
     52  C         60.8400   25.1400   34.3510 C.2    22  ALA22       0.2287
     53  O         62.0440   25.2750   34.5090 O.2    22  ALA22      -0.2864
     54  CB        58.9580   25.6290   35.9860 C.3    22  ALA22       0.0319
     55  N         54.7620   15.4380   41.2920 N.3    40  VAL40      -0.1245
     56  CA        53.8500   15.5580   42.4010 C.3    40  VAL40       0.1561
     57  C         52.4740   14.8950   42.1780 C.2    40  VAL40       0.2260
     58  O         51.4890   15.5710   41.8870 O.2    40  VAL40      -0.2867
     59  CB        53.7980   17.0210   43.0290 C.3    40  VAL40       0.0252
     60  CG1       55.0950   17.4200   43.7090 C.3    40  VAL40       0.0019
     61  CG2       53.3780   18.0780   42.0590 C.3    40  VAL40       0.0019
     62  N         44.6580   30.0890   44.0530 N.3   107  GLN107     -0.1245
     63  CA        44.4770   28.8460   43.3270 C.3   107  GLN107      0.1566
     64  C         43.3110   28.0210   43.8710 C.2   107  GLN107      0.2260
     65  O         42.6950   27.2530   43.1470 O.2   107  GLN107     -0.2867
     66  CB        45.7850   28.0590   43.3580 C.3   107  GLN107      0.0367
     67  CG        45.6920   26.6570   42.8350 C.3   107  GLN107      0.0905
     68  CD        47.0430   26.1330   42.4260 C.2   107  GLN107      0.2608
     69  OE1       47.9360   26.9070   42.0570 O.2   107  GLN107     -0.2717
     70  NE2       47.2050   24.8170   42.4730 N.am  107  GLN107     -0.0878
     71  N         40.1600   27.3660   41.3930 N.3   111  LYS111     -0.1245
     72  CA        39.9020   25.9260   41.1940 C.3   111  LYS111      0.1561
     73  C         38.5890   25.4740   41.8670 C.2   111  LYS111      0.2260
     74  O         37.9620   24.4920   41.4540 O.2   111  LYS111     -0.2867
     75  CB        41.0840   25.0950   41.7220 C.3   111  LYS111      0.0271
     76  CG        41.8850   24.3500   40.6620 C.3   111  LYS111      0.0035
     77  CD        43.4040   24.5330   40.8360 C.3   111  LYS111      0.0206
     78  CE        44.1250   24.7660   39.4850 C.3   111  LYS111      0.1093
     79  NZ        45.0880   23.6890   39.0730 N.3   111  LYS111     -0.1314
     80  N         45.9260   21.5170   49.6700 N.3   125  TYR125     -0.1241
     81  CA        47.0120   21.4480   48.7170 C.3   125  TYR125      0.1605
     82  C         48.2860   22.1250   49.3030 C.2   125  TYR125      0.2264
     83  O         49.3960   21.5860   49.1890 O.2   125  TYR125     -0.2867
     84  CB        46.5520   22.2010   47.4500 C.3   125  TYR125      0.0534
     85  CG        47.4440   22.0790   46.2200 C.ar  125  TYR125     -0.0201
     86  CD1       48.6800   22.7350   46.1640 C.ar  125  TYR125     -0.0009
     87  CD2       46.9850   21.4410   45.0360 C.ar  125  TYR125     -0.0009
     88  CE1       49.4860   22.6850   45.0100 C.ar  125  TYR125      0.0417
     89  CE2       47.7900   21.3880   43.8620 C.ar  125  TYR125      0.0417
     90  CZ        49.0470   22.0040   43.8710 C.ar  125  TYR125      0.1957
     91  OH        49.8760   21.9750   42.7550 O.3   125  TYR125     -0.2866
     92  N         62.3950   27.2060   42.0500 N.3   142  PRO142     -0.2102
     93  CA        62.2230   27.7360   40.7060 C.3   142  PRO142      0.1504
     94  C         60.8500   27.3800   40.1050 C.2   142  PRO142      0.2576
     95  O         60.6460   26.2680   39.6150 O.2   142  PRO142     -0.2718
     96  CB        63.3750   27.1030   39.9370 C.3   142  PRO142      0.0282
     97  CG        63.6930   25.8360   40.6560 C.3   142  PRO142      0.0208
     98  CD        63.2060   25.9730   42.0700 C.3   142  PRO142      0.0893
     99  N         59.8970   28.3090   40.1880 N.am  143  VAL143     -0.1966
    100  CA        58.5370   28.0830   39.6800 C.3   143  VAL143      0.1727
    101  C         58.0410   29.2430   38.8230 C.2   143  VAL143      0.2616
    102  O         58.5330   30.3770   38.9540 O.2   143  VAL143     -0.2715
    103  CB        57.4960   27.9620   40.8370 C.3   143  VAL143      0.0290
    104  CG1       57.7380   26.7440   41.6740 C.3   143  VAL143      0.0023
    105  CG2       57.4780   29.1840   41.6680 C.3   143  VAL143      0.0023
    106  N         57.0020   28.9680   38.0180 N.am  144  GLY144     -0.1955
    107  CA        56.2920   30.0020   37.2530 C.3   144  GLY144      0.1869
    108  C         55.5960   30.9020   38.2810 C.2   144  GLY144      0.2309
    109  O         55.6100   30.5820   39.4560 O.2   144  GLY144     -0.2863
    110  N         52.3060   31.7640   39.0640 N.3   146  ASP146     -0.1225
    111  CA        51.1240   31.2660   39.7680 C.3   146  ASP146      0.1805
    112  C         51.3850   30.5900   41.1280 C.2   146  ASP146      0.2597
    113  O         50.5120   30.5570   42.0080 O.2   146  ASP146     -0.2718
    114  CB        50.3650   30.3030   38.8640 C.3   146  ASP146      0.1424
    115  CG        51.1820   29.0520   38.4990 C.2   146  ASP146      0.3668
    116  OD1       50.7050   27.9320   38.8350 O.co2 146  ASP146     -0.2456
    117  OD2       52.2290   29.1770   37.7960 O.co2 146  ASP146     -0.2456
    118  N         52.5730   30.0260   41.2930 N.am  147  GLN147     -0.1979
    119  CA        52.9190   29.2940   42.5020 C.3   147  GLN147      0.1601
    120  C         53.5320   30.1690   43.5600 C.2   147  GLN147      0.2287
    121  O         53.8750   29.6880   44.6110 O.2   147  GLN147     -0.2864
    122  CB        53.9060   28.1630   42.1580 C.3   147  GLN147      0.0394
    123  CG        53.3110   27.0580   41.2850 C.3   147  GLN147      0.0908
    124  CD        52.1890   26.3260   41.9980 C.2   147  GLN147      0.2608
    125  OE1       52.0410   26.4210   43.2270 O.2   147  GLN147     -0.2717
    126  NE2       51.3860   25.5960   41.2330 N.am  147  GLN147     -0.0878
    127  N         58.4100   34.9950   30.5180 N.3   180  GLY180     -0.1210
    128  CA        57.6470   33.7770   30.2830 C.3   180  GLY180      0.1956
    129  C         57.2160   33.0670   31.5430 C.2   180  GLY180      0.2611
    130  O         57.0670   31.8630   31.5330 O.2   180  GLY180     -0.2717
    131  N         56.9890   33.8220   32.6130 N.am  181  ALA181     -0.1979
    132  CA        56.5290   33.2730   33.8920 C.3   181  ALA181      0.1597
    133  C         55.0270   32.9360   33.8360 C.2   181  ALA181      0.2287
    134  O         54.5610   32.0120   34.5260 O.2   181  ALA181     -0.2864
    135  CB        56.8290   34.2540   35.0290 C.3   181  ALA181      0.0319
    136  N         52.7760   32.1910   30.6660 N.3   183  ILE183     -0.1245
    137  CA        52.3330   31.9770   29.3010 C.3   183  ILE183      0.1561
    138  C         50.7950   31.7910   29.3550 C.2   183  ILE183      0.2260
    139  O         50.2610   31.1360   30.2550 O.2   183  ILE183     -0.2867
    140  CB        53.0650   30.7920   28.6480 C.3   183  ILE183      0.0252
    141  CG1       54.5800   31.0000   28.7320 C.3   183  ILE183      0.0019
    142  CG2       52.6430   30.5640   27.1990 C.3   183  ILE183      0.0019
    143  CD1       55.1960   31.5890   27.5200 C.3   183  ILE183      0.0001
    144  N         45.8350   31.7020   32.1660 N.3   192  LYS192     -0.1231
    145  CA        47.1600   31.1280   32.0090 C.3   192  LYS192      0.1693
    146  C         47.0670   29.8240   31.1930 C.2   192  LYS192      0.2592
    147  O         46.0010   29.1870   31.1230 O.2   192  LYS192     -0.2718
    148  CB        47.7300   30.8270   33.4000 C.3   192  LYS192      0.0285
    149  CG        49.0780   30.1020   33.3930 C.3   192  LYS192      0.0035
    150  CD        49.3360   29.4100   34.7310 C.3   192  LYS192      0.0206
    151  CE        48.2070   28.4750   35.1310 C.3   192  LYS192      0.1093
    152  NZ        48.6860   27.0800   35.3330 N.3   192  LYS192     -0.1314
    153  N         48.1720   29.4290   30.5700 N.am  193  MET193     -0.1965
    154  CA        48.1660   28.1750   29.8580 C.3   193  MET193      0.1736
    155  C         48.2040   27.0770   30.9010 C.2   193  MET193      0.2617
    156  O         49.1450   26.9580   31.6490 O.2   193  MET193     -0.2715
    157  CB        49.3460   28.0490   28.9110 C.3   193  MET193      0.0427
    158  CG        49.1200   26.9640   27.9040 C.3   193  MET193      0.0599
    159  SD        50.5180   26.6820   26.8580 S.3   193  MET193     -0.1393
    160  CE        50.0370   27.5240   25.2580 C.3   193  MET193      0.0692
    161  N         47.1470   26.2960   30.9830 N.am  194  SER194     -0.1936
    162  CA        47.0630   25.2800   32.0080 C.3   194  SER194      0.2055
    163  C         46.8560   23.9470   31.3430 C.2   194  SER194      0.2643
    164  O         46.0560   23.8460   30.4230 O.2   194  SER194     -0.2714
    165  CB        45.9540   25.6230   32.9850 C.3   194  SER194      0.2130
    166  OG        45.7020   24.5000   33.7730 O.3   194  SER194     -0.2179
    167  N         47.7050   22.9800   31.6990 N.am  195  LYS195     -0.1963
    168  CA        47.7360   21.6510   31.0750 C.3   195  LYS195      0.1728
    169  C         46.4880   20.7790   31.3770 C.2   195  LYS195      0.2616
    170  O         46.3200   19.6670   30.8160 O.2   195  LYS195     -0.2715
    171  CB        49.0190   20.9260   31.5020 C.3   195  LYS195      0.0311
    172  CG        48.8820   20.1530   32.8280 C.3   195  LYS195      0.0038
    173  CD        49.9550   19.0690   33.0050 C.3   195  LYS195      0.0206
    174  CE        51.0490   19.5040   33.9730 C.3   195  LYS195      0.1093
    175  NZ        50.4080   19.8160   35.2740 N.3   195  LYS195     -0.1314
    176  N         45.6160   21.2860   32.2550 N.am  196  SER196     -0.1950
    177  CA        44.3770   20.5800   32.6310 C.3   196  SER196      0.1924
    178  C         43.1460   21.3200   32.0960 C.2   196  SER196      0.2314
    179  O         42.0130   21.1840   32.6230 O.2   196  SER196     -0.2863
    180  CB        44.2730   20.3920   34.1520 C.3   196  SER196      0.2116
    181  OG        43.8450   21.5860   34.7910 O.3   196  SER196     -0.2180
@<TRIPOS>BOND
     1   160   159    1
     2   159   158    1
     3   142   140    1
     4   143   141    1
     5   158   157    1
     6    34    35    1
     7   140   141    1
     8   140   137    1
     9   157   154    1
    10   137   138    1
    11   137   136    1
    12    35    36    1
    13   138   139    2
    14   154   153    1
    15   154   155    1
    16   128   127    1
    17   128   129    1
    18   164   163    2
    19    36    38   am
    20    36    37    2
    21   153   146   am
    22   170   169    2
    23    38    39    1
    24   155   161   am
    25   155   156    2
    26   161   162    1
    27   168   169    1
    28   168   171    1
    29   168   167    1
    30   147   146    2
    31   146   145    1
    32   163   167   am
    33   163   162    1
    34   169   176   am
    35   171   172    1
    36   130   129    2
    37   129   131   am
    38    40    39    1
    39    40    41    2
    40    46    47    1
    41    44    43    2
    42    39    42    1
    43   162   165    1
    44   145   144    1
    45   145   148    1
    46   178   179    2
    47   178   177    1
    48   176   177    1
    49    42    43    1
    50    43    45   am
    51   131   132    1
    52   177   180    1
    53   172   173    1
    54   165   166    1
    55    47    48    1
    56   173   174    1
    57   149   148    1
    58   149   150    1
    59    31    30    2
    60   133   132    1
    61   133   134    2
    62   132   135    1
    63    50    48   am
    64    50    51    1
    65   174   175    1
    66    48    49    2
    67   180   181    1
    68    30    29    1
    69    52    53    2
    70    52    51    1
    71   150   151    1
    72    51    54    1
    73   151   152    1
    74    18    16    1
    75    29    28    1
    76    29    32    1
    77    33    32    1
    78    17    15    1
    79    22    21    2
    80    16    15    1
    81    15    12    1
    82   107   106    1
    83   107   108    1
    84    21    20    1
    85   117   115   ar
    86   106   101   am
    87   108   109    2
    88    12    13    1
    89    12    11    1
    90   115   116   ar
    91   115   114    1
    92    13    19   am
    93    13    14    2
    94    19    20    1
    95    20    23    1
    96    23    24    1
    97   101   102    2
    98   101   100    1
    99   114   111    1
   100   110   111    1
   101    79    78    1
   102    78    77    1
   103    11     9   am
   104    95    94    2
   105    27    25   am
   106   100    99    1
   107   100   103    1
   108   111   112    1
   109    96    97    1
   110    96    93    1
   111    10     9    2
   112    25    24    1
   113    25    26    2
   114    94    99   am
   115    94    93    1
   116     9     8    1
   117    97    98    1
   118    76    77    1
   119    76    75    1
   120     6     5    1
   121    93    92    1
   122   103   105    1
   123   103   104    1
   124     5     2    1
   125   112   118   am
   126   112   113    2
   127    72    71    1
   128    72    75    1
   129    72    73    1
   130   126   124   am
   131   123   124    1
   132   123   122    1
   133    55    56    1
   134   118   119    1
   135    74    73    2
   136     8     7    1
   137     4     3    2
   138     7     3   am
   139     3     2    1
   140    58    57    2
   141   124   125    2
   142    92    98    1
   143    69    68    2
   144    61    59    1
   145   122   119    1
   146    57    56    1
   147     2     1    1
   148    56    59    1
   149    68    70   am
   150    68    67    1
   151   119   120    1
   152    91    90    1
   153    67    66    1
   154    59    60    1
   155    65    64    2
   156    63    66    1
   157    63    64    1
   158    63    62    1
   159   120   121    2
   160    89    90   ar
   161    89    87   ar
   162    90    88   ar
   163    88    86   ar
   164    87    85   ar
   165    86    85   ar
   166    85    84    1
   167    84    81    1
   168    81    82    1
   169    81    80    1
   170    83    82    2
