@<TRIPOS>MOLECULE
tmp/2ov4A01.pdb
 97 91 0 0 0
SMALL
GASTEIGER

@<TRIPOS>ATOM
      1  N         64.2380   23.0410   45.0190 N.3     5  PHE5       -0.1227
      2  CA        63.1780   22.0110   44.9000 C.3     5  PHE5        0.1736
      3  C         62.1430   22.5580   43.9540 C.2     5  PHE5        0.2596
      4  O         61.7890   23.7140   44.0300 O.2     5  PHE5       -0.2718
      5  CB        62.4710   21.7150   46.2460 C.3     5  PHE5        0.0547
      6  CG        61.4980   20.5420   46.1900 C.ar    5  PHE5       -0.0202
      7  CD1       61.8970   19.2560   46.5900 C.ar    5  PHE5       -0.0042
      8  CD2       60.1970   20.7090   45.7090 C.ar    5  PHE5       -0.0042
      9  CE1       61.0520   18.1770   46.4310 C.ar    5  PHE5       -0.0003
     10  CE2       59.3200   19.6300   45.5940 C.ar    5  PHE5       -0.0003
     11  CZ        59.7600   18.3680   45.9080 C.ar    5  PHE5       -0.0000
     12  N         61.6290   21.7150   43.0840 N.am    6  SER6       -0.1938
     13  CA        60.4620   22.0830   42.2360 C.3     6  SER6        0.2055
     14  C         59.6900   20.8210   41.8660 C.2     6  SER6        0.2643
     15  O         60.2550   19.7420   41.6470 O.2     6  SER6       -0.2714
     16  CB        60.8630   22.8170   40.9540 C.3     6  SER6        0.2130
     17  OG        59.9710   23.8780   40.6800 O.3     6  SER6       -0.2179
     18  N         58.3760   20.9600   41.8350 N.am    7  GLY7       -0.1954
     19  CA        57.5080   19.8510   41.4660 C.3     7  GLY7        0.1869
     20  C         56.6410   20.1860   40.2550 C.2     7  GLY7        0.2309
     21  O         56.3160   21.3430   40.0070 O.2     7  GLY7       -0.2863
     22  N         54.7620   15.4380   41.2920 N.3    40  VAL40      -0.1245
     23  CA        53.8500   15.5580   42.4010 C.3    40  VAL40       0.1561
     24  C         52.4740   14.8950   42.1780 C.2    40  VAL40       0.2260
     25  O         51.4890   15.5710   41.8870 O.2    40  VAL40      -0.2867
     26  CB        53.7980   17.0210   43.0290 C.3    40  VAL40       0.0252
     27  CG1       55.0950   17.4200   43.7090 C.3    40  VAL40       0.0019
     28  CG2       53.3780   18.0780   42.0590 C.3    40  VAL40       0.0019
     29  N         49.4780   15.5630   44.6040 N.3    43  HIS43      -0.1241
     30  CA        48.8080   16.8280   44.3090 C.3    43  HIS43       0.1621
     31  C         47.7660   16.6220   43.1820 C.2    43  HIS43       0.2264
     32  O         46.6060   17.0580   43.2880 O.2    43  HIS43      -0.2867
     33  CB        49.8190   17.8680   43.9130 C.3    43  HIS43       0.0745
     34  CG        50.3050   18.6750   45.0730 C.ar   43  HIS43       0.0817
     35  ND1       51.6070   18.6240   45.5310 N.ar   43  HIS43      -0.2268
     36  CD2       49.6320   19.4880   45.9290 C.ar   43  HIS43       0.1154
     37  CE1       51.7200   19.4020   46.5890 C.ar   43  HIS43       0.1986
     38  NE2       50.5350   19.9360   46.8550 N.ar   43  HIS43      -0.2212
     39  N         45.9260   21.5170   49.6700 N.3   125  TYR125     -0.1241
     40  CA        47.0120   21.4480   48.7170 C.3   125  TYR125      0.1605
     41  C         48.2860   22.1250   49.3030 C.2   125  TYR125      0.2264
     42  O         49.3960   21.5860   49.1890 O.2   125  TYR125     -0.2867
     43  CB        46.5520   22.2010   47.4500 C.3   125  TYR125      0.0534
     44  CG        47.4440   22.0790   46.2200 C.ar  125  TYR125     -0.0201
     45  CD1       48.6800   22.7350   46.1640 C.ar  125  TYR125     -0.0009
     46  CD2       46.9850   21.4410   45.0360 C.ar  125  TYR125     -0.0009
     47  CE1       49.4860   22.6850   45.0100 C.ar  125  TYR125      0.0417
     48  CE2       47.7900   21.3880   43.8620 C.ar  125  TYR125      0.0417
     49  CZ        49.0470   22.0040   43.8710 C.ar  125  TYR125      0.1957
     50  OH        49.8760   21.9750   42.7550 O.3   125  TYR125     -0.2866
     51  N         52.4610   21.0200   49.5100 N.3   129  MET129     -0.1245
     52  CA        53.4930   21.7270   48.7620 C.3   129  MET129      0.1570
     53  C         54.5920   22.2950   49.7250 C.2   129  MET129      0.2261
     54  O         55.8020   22.1830   49.4530 O.2   129  MET129     -0.2867
     55  CB        52.8600   22.8520   47.9890 C.3   129  MET129      0.0387
     56  CG        53.8770   23.8160   47.4220 C.3   129  MET129      0.0595
     57  SD        53.2840   24.5930   45.9290 S.3   129  MET129     -0.1393
     58  CE        54.8120   25.4530   45.2540 C.3   129  MET129      0.0692
     59  N         56.7890   19.4220   50.6060 N.3   132  ASP132     -0.1225
     60  CA        57.6430   19.0550   49.4540 C.3   132  ASP132      0.1805
     61  C         58.9170   19.8290   49.5050 C.2   132  ASP132      0.2597
     62  O         60.0060   19.2930   49.3510 O.2   132  ASP132     -0.2718
     63  CB        56.9730   19.3640   48.0920 C.3   132  ASP132      0.1424
     64  CG        55.6810   18.5800   47.8560 C.2   132  ASP132      0.3668
     65  OD1       54.8150   19.0760   47.1170 O.co2 132  ASP132     -0.2456
     66  OD2       55.5200   17.4640   48.3760 O.co2 132  ASP132     -0.2456
     67  N         58.7390   21.1070   49.7650 N.am  133  ILE133     -0.1980
     68  CA        59.7920   22.0970   49.8040 C.3   133  ILE133      0.1595
     69  C         60.6540   22.0420   51.0620 C.2   133  ILE133      0.2287
     70  O         61.8940   21.9030   50.9920 O.2   133  ILE133     -0.2864
     71  CB        59.1740   23.5190   49.6080 C.3   133  ILE133      0.0276
     72  CG1       58.5950   23.6130   48.1840 C.3   133  ILE133      0.0022
     73  CG2       60.2040   24.5770   49.8800 C.3   133  ILE133      0.0022
     74  CD1       57.6480   24.7780   47.8910 C.3   133  ILE133      0.0001
     75  N         63.0670   27.9070   45.1190 N.3   141  VAL141     -0.1245
     76  CA        62.0450   27.1310   44.4490 C.3   141  VAL141      0.1561
     77  C         61.7870   27.7670   43.0830 C.2   141  VAL141      0.2260
     78  O         61.1110   28.7880   42.9700 O.2   141  VAL141     -0.2867
     79  CB        60.7330   27.0730   45.2880 C.3   141  VAL141      0.0252
     80  CG1       59.8410   25.9540   44.7550 C.3   141  VAL141      0.0019
     81  CG2       61.0410   26.7960   46.7740 C.3   141  VAL141      0.0019
     82  N         59.8970   28.3090   40.1880 N.3   143  VAL143     -0.1245
     83  CA        58.5370   28.0830   39.6800 C.3   143  VAL143      0.1561
     84  C         58.0410   29.2430   38.8230 C.2   143  VAL143      0.2260
     85  O         58.5330   30.3770   38.9540 O.2   143  VAL143     -0.2867
     86  CB        57.4960   27.9620   40.8370 C.3   143  VAL143      0.0252
     87  CG1       57.7380   26.7440   41.6740 C.3   143  VAL143      0.0019
     88  CG2       57.4780   29.1840   41.6680 C.3   143  VAL143      0.0019
     89  N         52.5730   30.0260   41.2930 N.3   147  GLN147     -0.1245
     90  CA        52.9190   29.2940   42.5020 C.3   147  GLN147      0.1566
     91  C         53.5320   30.1690   43.5600 C.2   147  GLN147      0.2260
     92  O         53.8750   29.6880   44.6110 O.2   147  GLN147     -0.2867
     93  CB        53.9060   28.1630   42.1580 C.3   147  GLN147      0.0367
     94  CG        53.3110   27.0580   41.2850 C.3   147  GLN147      0.0905
     95  CD        52.1890   26.3260   41.9980 C.2   147  GLN147      0.2608
     96  OE1       52.0410   26.4210   43.2270 O.2   147  GLN147     -0.2717
     97  NE2       51.3860   25.5960   41.2330 N.am  147  GLN147     -0.0878
@<TRIPOS>BOND
     1    84    85    2
     2    84    83    1
     3    83    82    1
     4    83    86    1
     5    21    20    2
     6    20    19    1
     7    17    16    1
     8    86    88    1
     9    86    87    1
    10    16    13    1
    11    97    95   am
    12    94    95    1
    13    94    93    1
    14    22    23    1
    15    89    90    1
    16    19    18    1
    17    15    14    2
    18    18    14   am
    19    14    13    1
    20    25    24    2
    21    95    96    2
    22    28    26    1
    23    93    90    1
    24    24    23    1
    25    13    12    1
    26    23    26    1
    27    90    91    1
    28    50    49    1
    29    78    77    2
    30    26    27    1
    31    77    76    1
    32    12     3   am
    33    31    32    2
    34    31    30    1
    35    91    92    2
    36    48    49   ar
    37    48    46   ar
    38    49    47   ar
    39    33    30    1
    40    33    34    1
    41     3     4    2
    42     3     2    1
    43    30    29    1
    44    76    75    1
    45    76    79    1
    46    80    79    1
    47     2     1    1
    48     2     5    1
    49    47    45   ar
    50    46    44   ar
    51    34    35   ar
    52    34    36   ar
    53    58    57    1
    54    79    81    1
    55    35    37   ar
    56    10     8   ar
    57    10    11   ar
    58     8     6   ar
    59    11     9   ar
    60    57    56    1
    61    36    38   ar
    62    45    44   ar
    63     6     5    1
    64     6     7   ar
    65    44    43    1
    66     9     7   ar
    67    37    38   ar
    68    65    64   ar
    69    56    55    1
    70    43    40    1
    71    64    63    1
    72    64    66   ar
    73    74    72    1
    74    55    52    1
    75    63    60    1
    76    72    71    1
    77    40    41    1
    78    40    39    1
    79    52    51    1
    80    52    53    1
    81    42    41    2
    82    62    61    2
    83    54    53    2
    84    60    61    1
    85    60    59    1
    86    61    67   am
    87    71    68    1
    88    71    73    1
    89    67    68    1
    90    68    69    1
    91    70    69    2
