@<TRIPOS>MOLECULE
tmp/2ov5A00.pdb
 109 100 0 0 0
SMALL
GASTEIGER

@<TRIPOS>ATOM
      1  N         56.3220  -18.6870   -5.8460 N.3    40  SER40      -0.1217
      2  CA        55.3410  -19.7430   -5.6270 C.3    40  SER40       0.1889
      3  C         53.9350  -19.2800   -5.2160 C.2    40  SER40       0.2288
      4  O         52.9770  -20.0370   -5.3310 O.2    40  SER40      -0.2866
      5  CB        55.8880  -20.6990   -4.5620 C.3    40  SER40       0.2089
      6  OG        57.3030  -20.8150   -4.6580 O.3    40  SER40      -0.2183
      7  N         50.2520  -19.7910   -6.9570 N.3    43  LYS43      -0.1245
      8  CA        49.4710  -21.0170   -6.8040 C.3    43  LYS43       0.1561
      9  C         48.1510  -20.8460   -6.0480 C.2    43  LYS43       0.2260
     10  O         47.1900  -21.5740   -6.3070 O.2    43  LYS43      -0.2867
     11  CB        50.3370  -22.0900   -6.1370 C.3    43  LYS43       0.0271
     12  CG        51.5320  -22.5070   -6.9810 C.3    43  LYS43       0.0035
     13  CD        52.5240  -23.3270   -6.1800 C.3    43  LYS43       0.0206
     14  CE        53.7340  -23.7260   -7.0140 C.3    43  LYS43       0.1093
     15  NZ        54.8540  -24.1730   -6.1330 N.3    43  LYS43      -0.1314
     16  N         60.3940  -30.2820   -6.3170 N.3    75  TRP75      -0.1241
     17  CA        59.3740  -29.9830   -5.3150 C.3    75  TRP75       0.1605
     18  C         57.9440  -30.2900   -5.7650 C.2    75  TRP75       0.2264
     19  O         57.1140  -29.3930   -5.9350 O.2    75  TRP75      -0.2867
     20  CB        59.4620  -28.5360   -4.8140 C.3    75  TRP75       0.0550
     21  CG        58.8090  -28.3830   -3.4420 C.ar   75  TRP75       0.0003
     22  CD1       57.4710  -28.2060   -3.1740 C.ar   75  TRP75       0.0946
     23  CD2       59.4620  -28.4710   -2.1620 C.ar   75  TRP75       0.0152
     24  NE1       57.2580  -28.1780   -1.8120 N.ar   75  TRP75      -0.2442
     25  CE2       58.4590  -28.3390   -1.1670 C.ar   75  TRP75       0.0810
     26  CE3       60.7960  -28.6480   -1.7560 C.ar   75  TRP75       0.0012
     27  CZ2       58.7530  -28.3770    0.2080 C.ar   75  TRP75       0.0191
     28  CZ3       61.0870  -28.6840   -0.3850 C.ar   75  TRP75       0.0001
     29  CH2       60.0700  -28.5470    0.5760 C.ar   75  TRP75       0.0015
     30  N         52.6310  -26.4450   -2.0930 N.3   100  SER100     -0.1217
     31  CA        53.3030  -25.7100   -3.1630 C.3   100  SER100      0.1889
     32  C         53.8300  -26.6890   -4.2270 C.2   100  SER100      0.2288
     33  O         54.8430  -26.4430   -4.8750 O.2   100  SER100     -0.2866
     34  CB        54.4480  -24.8760   -2.5690 C.3   100  SER100      0.2089
     35  OG        54.7920  -23.7870   -3.4040 O.3   100  SER100     -0.2183
     36  N         54.7510  -28.1930   -7.3500 N.3   102  ASN102     -0.1240
     37  CA        54.9650  -27.6200   -8.6760 C.3   102  ASN102      0.1653
     38  C         54.3140  -28.3900   -9.8160 C.2   102  ASN102      0.2266
     39  O         53.7320  -27.7820  -10.7150 O.2   102  ASN102     -0.2867
     40  CB        56.4640  -27.4440   -8.9420 C.3   102  ASN102      0.1155
     41  CG        57.0440  -26.2680   -8.1760 C.2   102  ASN102      0.2627
     42  OD1       56.4170  -25.2130   -8.0840 O.2   102  ASN102     -0.2716
     43  ND2       58.2410  -26.4390   -7.6270 N.am  102  ASN102     -0.0877
     44  N         56.1170  -23.0170  -13.4410 N.3   136  GLU136     -0.1231
     45  CA        57.0990  -23.4400  -12.4460 C.3   136  GLU136      0.1699
     46  C         58.0410  -24.3610  -13.2140 C.2   136  GLU136      0.2592
     47  O         57.5720  -25.2150  -13.9690 O.2   136  GLU136     -0.2718
     48  CB        56.3940  -24.2080  -11.3160 C.3   136  GLU136      0.0402
     49  CG        55.6080  -23.3200  -10.3610 C.3   136  GLU136      0.1161
     50  CD        56.5170  -22.5900   -9.3830 C.2   136  GLU136      0.3649
     51  OE1       57.7420  -22.5660   -9.6340 O.co2 136  GLU136     -0.2457
     52  OE2       56.0160  -22.0430   -8.3800 O.co2 136  GLU136     -0.2457
     53  N         59.3430  -24.2440  -13.0250 N.am  137  LEU137     -0.1980
     54  CA        59.9560  -23.3250  -12.0980 C.3   137  LEU137      0.1596
     55  C         60.6710  -22.1540  -12.7520 C.2   137  LEU137      0.2287
     56  O         61.3780  -21.4190  -12.0730 O.2   137  LEU137     -0.2864
     57  CB        60.9610  -24.0830  -11.2390 C.3   137  LEU137      0.0297
     58  CG        60.4930  -25.2990  -10.4380 C.3   137  LEU137      0.0022
     59  CD1       60.2960  -26.5170  -11.3230 C.3   137  LEU137      0.0001
     60  CD2       61.5360  -25.5800   -9.3820 C.3   137  LEU137      0.0001
     61  N         60.7180  -18.4060  -11.4740 N.3   140  ASN140     -0.1240
     62  CA        61.4720  -18.0070  -10.2810 C.3   140  ASN140      0.1653
     63  C         62.8030  -17.2860  -10.5170 C.2   140  ASN140      0.2266
     64  O         63.6000  -17.1660   -9.5870 O.2   140  ASN140     -0.2867
     65  CB        61.7480  -19.2340   -9.4060 C.3   140  ASN140      0.1155
     66  CG        60.4840  -19.9100   -8.9420 C.2   140  ASN140      0.2627
     67  OD1       59.7900  -19.4080   -8.0650 O.2   140  ASN140     -0.2716
     68  ND2       60.1700  -21.0480   -9.5370 N.am  140  ASN140     -0.0877
     69  N         53.3290  -24.8480    4.4740 N.3   186  THR186     -0.1218
     70  CA        54.6190  -24.2210    4.2050 C.3   186  THR186      0.1862
     71  C         54.9320  -22.8360    4.7840 C.2   186  THR186      0.2287
     72  O         56.0450  -22.3420    4.5980 O.2   186  THR186     -0.2866
     73  CB        54.8480  -24.1260    2.6850 C.3   186  THR186      0.1770
     74  OG1       53.9310  -23.1760    2.1300 O.3   186  THR186     -0.2211
     75  CG2       54.6180  -25.4860    2.0190 C.3   186  THR186      0.0375
     76  N         56.4700  -17.6720    8.5680 N.3   190  ARG190     -0.1245
     77  CA        56.2820  -16.3680    7.9620 C.3   190  ARG190      0.1563
     78  C         55.1560  -15.5980    8.6370 C.2   190  ARG190      0.2260
     79  O         55.2460  -15.3200    9.8290 O.2   190  ARG190     -0.2867
     80  CB        56.0870  -16.5220    6.4460 C.3   190  ARG190      0.0307
     81  CG        57.3020  -17.2270    5.8040 C.3   190  ARG190      0.0489
     82  CD        57.2720  -17.3670    4.2760 C.3   190  ARG190      0.2205
     83  NE        58.4300  -18.1450    3.8270 N.pl3 190  ARG190     -0.0865
     84  CZ        58.8430  -18.2570    2.5700 C.cat 190  ARG190      0.5346
     85  NH1       58.2000  -17.6410    1.5950 N.pl3 190  ARG190      0.1354
     86  NH2       59.9130  -18.9920    2.2910 N.pl3 190  ARG190      0.1354
     87  N         49.5160  -18.4330    1.6950 N.3   204  LYS204     -0.1231
     88  CA        50.2330  -19.0640    0.5930 C.3   204  LYS204      0.1693
     89  C         51.5710  -18.3410    0.5060 C.2   204  LYS204      0.2592
     90  O         51.6320  -17.1110    0.4320 O.2   204  LYS204     -0.2718
     91  CB        49.5220  -18.9370   -0.7510 C.3   204  LYS204      0.0285
     92  CG        50.3240  -19.5830   -1.8870 C.3   204  LYS204      0.0035
     93  CD        50.3880  -21.0970   -1.7230 C.3   204  LYS204      0.0206
     94  CE        51.4270  -21.7650   -2.6290 C.3   204  LYS204      0.1093
     95  NZ        52.7790  -21.8310   -2.0130 N.3   204  LYS204     -0.1314
     96  N         52.6360  -19.1290    0.5180 N.am  205  THR205     -0.1953
     97  CA        53.9950  -18.6250    0.4560 C.3   205  THR205      0.1897
     98  C         54.5650  -18.6210   -0.9630 C.2   205  THR205      0.2313
     99  O         54.0140  -19.2310   -1.8820 O.2   205  THR205     -0.2863
    100  CB        54.8930  -19.4940    1.3390 C.3   205  THR205      0.1794
    101  OG1       54.7960  -20.8540    0.8970 O.3   205  THR205     -0.2208
    102  CG2       54.4430  -19.4250    2.7960 C.3   205  THR205      0.0378
    103  N         58.6380  -18.6760   -2.7380 N.3   207  THR207     -0.1218
    104  CA        60.0900  -18.6770   -2.5470 C.3   207  THR207      0.1862
    105  C         60.7700  -18.9410   -3.8960 C.2   207  THR207      0.2287
    106  O         60.6720  -20.0430   -4.4500 O.2   207  THR207     -0.2866
    107  CB        60.5470  -19.7590   -1.5340 C.3   207  THR207      0.1770
    108  OG1       59.8000  -19.6500   -0.3130 O.3   207  THR207     -0.2211
    109  CG2       62.0090  -19.5770   -1.2140 C.3   207  THR207      0.0375
@<TRIPOS>BOND
     1    47    46    2
     2    44    45    1
     3    46    53   am
     4    46    45    1
     5    53    54    1
     6    55    54    1
     7    55    56    2
     8    45    48    1
     9    54    57    1
    10    61    62    1
    11    59    58    1
    12    48    49    1
    13    57    58    1
    14    39    38    2
    15    63    62    1
    16    63    64    2
    17    58    60    1
    18    49    50    1
    19    62    65    1
    20    38    37    1
    21    51    50   ar
    22    68    66   am
    23    65    66    1
    24    50    52   ar
    25    40    37    1
    26    40    41    1
    27    66    67    2
    28    37    36    1
    29    41    42    2
    30    41    43   am
    31    14    13    1
    32    14    15    1
    33    12    13    1
    34    12    11    1
    35     7     8    1
    36     8    11    1
    37     8     9    1
    38    16    17    1
    39    10     9    2
    40    19    18    2
    41     1     2    1
    42    18    17    1
    43     2     3    1
    44     2     5    1
    45     4     3    2
    46    17    20    1
    47    33    32    2
    48    20    21    1
    49     6     5    1
    50   106   105    2
    51    32    31    1
    52   105   104    1
    53    21    22   ar
    54    21    23   ar
    55    35    34    1
    56    22    24   ar
    57    31    34    1
    58    31    30    1
    59   103   104    1
    60    94    95    1
    61    94    93    1
    62   104   107    1
    63    23    26   ar
    64    23    25   ar
    65    92    93    1
    66    92    91    1
    67    99    98    2
    68    24    25   ar
    69    26    28   ar
    70   107   109    1
    71   107   108    1
    72    25    27   ar
    73    98    97    1
    74    91    88    1
    75    28    29   ar
    76    27    29   ar
    77    90    89    2
    78    97    96    1
    79    97   100    1
    80    89    96   am
    81    89    88    1
    82    88    87    1
    83   101   100    1
    84   100   102    1
    85    85    84    1
    86    75    73    1
    87    74    73    1
    88    86    84    1
    89    84    83    2
    90    73    70    1
    91    83    82    1
    92    70    69    1
    93    70    71    1
    94    82    81    1
    95    72    71    2
    96    81    80    1
    97    80    77    1
    98    77    76    1
    99    77    78    1
   100    78    79    2
