@<TRIPOS>MOLECULE
tmp/2ovdA00.pdb
 186 169 0 0 0
SMALL
GASTEIGER

@<TRIPOS>ATOM
      1  N         17.6380   36.2540   11.3970 N.3    17  PHE17      -0.1241
      2  CA        18.0530   36.2160   12.7910 C.3    17  PHE17       0.1605
      3  C         19.5310   36.5690   12.9490 C.2    17  PHE17       0.2264
      4  O         20.0040   36.7830   14.0600 O.2    17  PHE17      -0.2867
      5  CB        17.7830   34.8250   13.3670 C.3    17  PHE17       0.0534
      6  CG        17.8760   34.7550   14.8640 C.ar   17  PHE17      -0.0203
      7  CD1       19.0210   34.2780   15.4930 C.ar   17  PHE17      -0.0042
      8  CD2       16.8040   35.1620   15.6490 C.ar   17  PHE17      -0.0042
      9  CE1       19.0940   34.2100   16.8890 C.ar   17  PHE17      -0.0003
     10  CE2       16.8660   35.0990   17.0390 C.ar   17  PHE17      -0.0003
     11  CZ        18.0120   34.6210   17.6570 C.ar   17  PHE17      -0.0000
     12  N         26.0790   40.5330   28.3270 N.3    35  THR35      -0.1218
     13  CA        26.4050   39.6480   27.2040 C.3    35  THR35       0.1862
     14  C         25.9240   40.0830   25.8170 C.2    35  THR35       0.2287
     15  O         24.8220   40.6050   25.6370 O.2    35  THR35      -0.2866
     16  CB        25.8850   38.2210   27.4640 C.3    35  THR35       0.1770
     17  OG1       26.3620   37.7750   28.7370 O.3    35  THR35      -0.2211
     18  CG2       26.3610   37.2660   26.3790 C.3    35  THR35       0.0375
     19  N         25.7350   38.7580   21.6150 N.3    37  LEU37      -0.1245
     20  CA        25.7150   37.6250   20.6950 C.3    37  LEU37       0.1561
     21  C         25.8980   38.0930   19.2590 C.2    37  LEU37       0.2260
     22  O         25.2950   39.0780   18.8450 O.2    37  LEU37      -0.2867
     23  CB        24.3760   36.8890   20.7760 C.3    37  LEU37       0.0270
     24  CG        24.1900   35.6970   21.6980 C.3    37  LEU37       0.0019
     25  CD1       22.7920   35.1130   21.4780 C.3    37  LEU37       0.0001
     26  CD2       25.2390   34.6420   21.3820 C.3    37  LEU37       0.0001
     27  N         25.5880   36.3450   15.6110 N.3    39  VAL39      -0.1245
     28  CA        25.1560   35.1300   14.9460 C.3    39  VAL39       0.1561
     29  C         25.3810   35.2240   13.4460 C.2    39  VAL39       0.2260
     30  O         24.9630   36.1850   12.7960 O.2    39  VAL39      -0.2867
     31  CB        23.6580   34.8570   15.2140 C.3    39  VAL39       0.0252
     32  CG1       23.2570   33.5130   14.6390 C.3    39  VAL39       0.0019
     33  CG2       23.3890   34.8910   16.7030 C.3    39  VAL39       0.0019
     34  N         24.7290   27.3970   12.6990 N.3    46  MET46      -0.1245
     35  CA        24.8670   28.7920   13.0990 C.3    46  MET46       0.1570
     36  C         26.1890   29.0200   13.8210 C.2    46  MET46       0.2261
     37  O         26.4470   28.4100   14.8560 O.2    46  MET46      -0.2867
     38  CB        23.7200   29.1780   14.0330 C.3    46  MET46       0.0387
     39  CG        22.3540   29.0050   13.4270 C.3    46  MET46       0.0595
     40  SD        21.9980   30.2830   12.2260 S.3    46  MET46      -0.1393
     41  CE        20.8260   31.2550   13.1370 C.3    46  MET46       0.0692
     42  N         28.3230   31.0180   16.1880 N.3    48  VAL48      -0.1245
     43  CA        27.9900   31.9380   17.2660 C.3    48  VAL48       0.1561
     44  C         29.1500   32.3990   18.1360 C.2    48  VAL48       0.2260
     45  O         29.9440   31.5940   18.6220 O.2    48  VAL48      -0.2867
     46  CB        26.9360   31.3160   18.2130 C.3    48  VAL48       0.0252
     47  CG1       26.6270   32.2740   19.3500 C.3    48  VAL48       0.0019
     48  CG2       25.6680   30.9850   17.4390 C.3    48  VAL48       0.0019
     49  N         29.9750   34.7410   21.5500 N.3    50  THR50      -0.1218
     50  CA        29.3970   35.3790   22.7220 C.3    50  THR50       0.1862
     51  C         30.5040   36.1970   23.3670 C.2    50  THR50       0.2287
     52  O         31.6480   35.7510   23.4490 O.2    50  THR50      -0.2866
     53  CB        28.8800   34.3530   23.7440 C.3    50  THR50       0.1770
     54  OG1       29.9630   33.5330   24.1980 O.3    50  THR50      -0.2211
     55  CG2       27.8110   33.4730   23.1170 C.3    50  THR50       0.0375
     56  N         31.5610   38.6370   26.7830 N.3    52  ARG52      -0.1245
     57  CA        31.2460   39.0320   28.1490 C.3    52  ARG52       0.1563
     58  C         32.4060   39.8650   28.6820 C.2    52  ARG52       0.2260
     59  O         33.5650   39.5170   28.4850 O.2    52  ARG52      -0.2867
     60  CB        31.0360   37.7930   29.0280 C.3    52  ARG52       0.0307
     61  CG        32.1890   36.8060   28.9760 C.3    52  ARG52       0.0489
     62  CD        31.9000   35.5540   29.7850 C.3    52  ARG52       0.2205
     63  NE        30.7300   34.8390   29.2860 N.pl3  52  ARG52      -0.0865
     64  CZ        30.2630   33.7120   29.8110 C.cat  52  ARG52       0.5346
     65  NH1       30.8690   33.1610   30.8550 N.pl3  52  ARG52       0.1354
     66  NH2       29.1810   33.1420   29.3010 N.pl3  52  ARG52       0.1354
     67  N         31.5030   29.4050   19.1120 N.3    63  GLN63      -0.1245
     68  CA        30.8570   28.1070   19.1080 C.3    63  GLN63       0.1566
     69  C         30.0950   27.8740   17.8140 C.2    63  GLN63       0.2260
     70  O         29.8740   28.7930   17.0220 O.2    63  GLN63      -0.2867
     71  CB        29.8810   27.9960   20.2910 C.3    63  GLN63       0.0367
     72  CG        30.5130   28.2770   21.6540 C.3    63  GLN63       0.0905
     73  CD        29.4970   28.2990   22.7800 C.2    63  GLN63       0.2608
     74  OE1       28.5320   29.0650   22.7510 O.2    63  GLN63      -0.2717
     75  NE2       29.7170   27.4690   23.7870 N.am   63  GLN63      -0.0878
     76  N         26.5230   26.0550   16.5580 N.3    65  TYR65      -0.1241
     77  CA        25.2590   25.4460   16.9480 C.3    65  TYR65       0.1605
     78  C         24.7120   24.7240   15.7240 C.2    65  TYR65       0.2264
     79  O         24.2900   25.3520   14.7540 O.2    65  TYR65      -0.2867
     80  CB        24.2740   26.5080   17.4510 C.3    65  TYR65       0.0534
     81  CG        24.6240   27.0210   18.8390 C.ar   65  TYR65      -0.0201
     82  CD1       25.6760   27.9160   19.0280 C.ar   65  TYR65      -0.0009
     83  CD2       23.9690   26.5320   19.9680 C.ar   65  TYR65      -0.0009
     84  CE1       26.0770   28.3070   20.3080 C.ar   65  TYR65       0.0417
     85  CE2       24.3570   26.9140   21.2580 C.ar   65  TYR65       0.0417
     86  CZ        25.4140   27.8000   21.4180 C.ar   65  TYR65       0.1957
     87  OH        25.8060   28.1740   22.6840 O.3    65  TYR65      -0.2866
     88  N         18.4290   24.0870   17.7070 N.3    74  PHE74      -0.1241
     89  CA        19.8430   23.8300   17.4720 C.3    74  PHE74       0.1605
     90  C         20.5120   23.0630   18.6100 C.2    74  PHE74       0.2264
     91  O         19.9490   22.9070   19.6940 O.2    74  PHE74      -0.2867
     92  CB        20.5820   25.1510   17.2400 C.3    74  PHE74       0.0534
     93  CG        19.9770   26.0020   16.1570 C.ar   74  PHE74      -0.0203
     94  CD1       18.9190   26.8600   16.4390 C.ar   74  PHE74      -0.0042
     95  CD2       20.4480   25.9190   14.8540 C.ar   74  PHE74      -0.0042
     96  CE1       18.3330   27.6290   15.4380 C.ar   74  PHE74      -0.0003
     97  CE2       19.8750   26.6790   13.8370 C.ar   74  PHE74      -0.0003
     98  CZ        18.8150   27.5380   14.1260 C.ar   74  PHE74      -0.0000
     99  N         24.3640   22.4660   20.6770 N.3    76  LEU76      -0.1245
    100  CA        25.7550   22.7850   20.9370 C.3    76  LEU76       0.1561
    101  C         26.1660   21.4180   21.4440 C.2    76  LEU76       0.2260
    102  O         25.7890   21.0230   22.5520 O.2    76  LEU76      -0.2867
    103  CB        25.8960   23.8070   22.0590 C.3    76  LEU76       0.0270
    104  CG        27.3540   24.0960   22.4580 C.3    76  LEU76       0.0019
    105  CD1       28.0810   24.8060   21.3180 C.3    76  LEU76       0.0001
    106  CD2       27.3820   24.9630   23.7120 C.3    76  LEU76       0.0001
    107  N         32.2530   20.0290   29.0260 N.3    82  ARG82      -0.1245
    108  CA        31.0620   20.7410   28.5810 C.3    82  ARG82       0.1563
    109  C         29.9490   19.7810   28.1770 C.2    82  ARG82       0.2260
    110  O         30.1320   18.9330   27.3030 O.2    82  ARG82      -0.2867
    111  CB        31.3940   21.6470   27.3920 C.3    82  ARG82       0.0307
    112  CG        32.4730   22.6780   27.6650 C.3    82  ARG82       0.0489
    113  CD        32.6830   23.5740   26.4540 C.3    82  ARG82       0.2205
    114  NE        31.5010   24.3840   26.1600 N.pl3  82  ARG82      -0.0865
    115  CZ        31.0380   25.3390   26.9600 C.cat  82  ARG82       0.5346
    116  NH1       31.6570   25.6030   28.1030 N.pl3  82  ARG82       0.1354
    117  NH2       29.9580   26.0310   26.6220 N.pl3  82  ARG82       0.1354
    118  N         24.2010   21.3250   24.9260 N.3    85  VAL85      -0.1245
    119  CA        23.2270   22.3690   25.1900 C.3    85  VAL85       0.1561
    120  C         22.2370   22.4540   24.0370 C.2    85  VAL85       0.2260
    121  O         22.6180   22.7240   22.9010 O.2    85  VAL85      -0.2867
    122  CB        23.8980   23.7470   25.3830 C.3    85  VAL85       0.0252
    123  CG1       22.8370   24.7950   25.7040 C.3    85  VAL85       0.0019
    124  CG2       24.9180   23.6800   26.5230 C.3    85  VAL85       0.0019
    125  N         19.1110   24.2030   22.1460 N.3    87  VAL87      -0.1245
    126  CA        18.6130   25.5660   21.9980 C.3    87  VAL87       0.1561
    127  C         17.3970   25.6410   21.0930 C.2    87  VAL87       0.2260
    128  O         17.3510   25.0050   20.0490 O.2    87  VAL87      -0.2867
    129  CB        19.7040   26.4780   21.4000 C.3    87  VAL87       0.0252
    130  CG1       19.1650   27.8960   21.2090 C.3    87  VAL87       0.0019
    131  CG2       20.9130   26.4790   22.3150 C.3    87  VAL87       0.0019
    132  N         14.7500   28.5920   19.4040 N.3    89  VAL89      -0.1245
    133  CA        14.3930   29.9860   19.2510 C.3    89  VAL89       0.1561
    134  C         12.8800   29.9510   19.2000 C.2    89  VAL89       0.2260
    135  O         12.2960   29.3770   18.2760 O.2    89  VAL89      -0.2867
    136  CB        14.9260   30.5970   17.9410 C.3    89  VAL89       0.0252
    137  CG1       14.3810   32.0140   17.7760 C.3    89  VAL89       0.0019
    138  CG2       16.4520   30.6330   17.9630 C.3    89  VAL89       0.0019
    139  N         14.7750   32.8360   23.7000 N.3   100  LEU100     -0.1245
    140  CA        15.4370   31.5540   23.4910 C.3   100  LEU100      0.1561
    141  C         15.3400   30.6590   24.7250 C.2   100  LEU100      0.2260
    142  O         15.3510   31.1350   25.8580 O.2   100  LEU100     -0.2867
    143  CB        16.9210   31.7830   23.1550 C.3   100  LEU100      0.0270
    144  CG        17.3240   32.0490   21.6970 C.3   100  LEU100      0.0019
    145  CD1       16.6440   33.2980   21.1770 C.3   100  LEU100      0.0001
    146  CD2       18.8410   32.1950   21.6100 C.3   100  LEU100      0.0001
    147  N         17.0630   27.2540   26.5910 N.3   102  LEU102     -0.1245
    148  CA        18.2640   26.4400   26.6070 C.3   102  LEU102      0.1561
    149  C         18.0700   25.3290   27.6090 C.2   102  LEU102      0.2260
    150  O         17.4660   25.5290   28.6650 O.2   102  LEU102     -0.2867
    151  CB        19.4890   27.2520   27.0230 C.3   102  LEU102      0.0270
    152  CG        20.1170   28.2280   26.0270 C.3   102  LEU102      0.0019
    153  CD1       19.2260   29.4410   25.8570 C.3   102  LEU102      0.0001
    154  CD2       21.4890   28.6480   26.5510 C.3   102  LEU102      0.0001
    155  N         20.2180   22.0180   29.5040 N.3   104  ARG104     -0.1245
    156  CA        21.4560   21.2990   29.7630 C.3   104  ARG104      0.1563
    157  C         21.2050   20.3930   30.9620 C.2   104  ARG104      0.2260
    158  O         20.7800   20.8580   32.0200 O.2   104  ARG104     -0.2867
    159  CB        22.5900   22.2750   30.0820 C.3   104  ARG104      0.0307
    160  CG        23.9490   21.6140   30.2680 C.3   104  ARG104      0.0489
    161  CD        24.9740   22.6140   30.7710 C.3   104  ARG104      0.2205
    162  NE        24.9880   23.8260   29.9610 N.pl3 104  ARG104     -0.0865
    163  CZ        25.7050   24.9080   30.2440 C.cat 104  ARG104      0.5346
    164  NH1       26.4740   24.9290   31.3240 N.pl3 104  ARG104      0.1354
    165  NH2       25.6450   25.9740   29.4550 N.pl3 104  ARG104      0.1354
    166  N         15.9670   32.8140   27.9510 N.3   111  LYS111     -0.1245
    167  CA        16.7230   34.0440   27.7800 C.3   111  LYS111      0.1561
    168  C         16.0310   35.0050   26.8150 C.2   111  LYS111      0.2260
    169  O         15.4420   34.5930   25.8120 O.2   111  LYS111     -0.2867
    170  CB        18.1440   33.7240   27.2880 C.3   111  LYS111      0.0271
    171  CG        18.9530   32.8440   28.2560 C.3   111  LYS111      0.0035
    172  CD        20.4360   32.7360   27.8570 C.3   111  LYS111      0.0206
    173  CE        21.2290   31.8390   28.8280 C.3   111  LYS111      0.1093
    174  NZ        22.6930   31.7840   28.5070 N.3   111  LYS111     -0.1314
    175  N         16.6390   38.2750   24.4170 N.3   113  TYR113     -0.1241
    176  CA        17.6430   39.0610   23.7200 C.3   113  TYR113      0.1605
    177  C         16.9350   40.1780   22.9630 C.2   113  TYR113      0.2264
    178  O         15.7660   40.0330   22.5970 O.2   113  TYR113     -0.2867
    179  CB        18.4170   38.1960   22.7240 C.3   113  TYR113      0.0534
    180  CG        19.4370   37.2780   23.3560 C.ar  113  TYR113     -0.0201
    181  CD1       19.0950   35.9840   23.7490 C.ar  113  TYR113     -0.0009
    182  CD2       20.7480   37.7120   23.5730 C.ar  113  TYR113     -0.0009
    183  CE1       20.0380   35.1420   24.3410 C.ar  113  TYR113      0.0417
    184  CE2       21.6950   36.8780   24.1680 C.ar  113  TYR113      0.0417
    185  CZ        21.3290   35.5950   24.5470 C.ar  113  TYR113      0.1957
    186  OH        22.2650   34.7660   25.1290 O.3   113  TYR113     -0.2866
@<TRIPOS>BOND
     1     1     2    1
     2    40    41    1
     3    40    39    1
     4    34    35    1
     5     2     3    1
     6     2     5    1
     7    30    29    2
     8     3     4    2
     9    35    36    1
    10    35    38    1
    11     5     6    1
    12    39    38    1
    13    29    28    1
    14    36    37    2
    15    97    98   ar
    16    97    95   ar
    17    98    96   ar
    18    32    31    1
    19    79    78    2
    20    95    93   ar
    21     6     7   ar
    22     6     8   ar
    23    28    31    1
    24    28    27    1
    25    31    33    1
    26    96    94   ar
    27     7     9   ar
    28     8    10   ar
    29    78    77    1
    30    93    94   ar
    31    93    92    1
    32    42    43    1
    33    76    77    1
    34     9    11   ar
    35    77    80    1
    36    70    69    2
    37    10    11   ar
    38    92    89    1
    39    43    44    1
    40    43    46    1
    41    48    46    1
    42    80    81    1
    43    89    88    1
    44    89    90    1
    45   137   136    1
    46    69    68    1
    47   136   138    1
    48   136   133    1
    49    44    45    2
    50    46    47    1
    51   135   134    2
    52    90    91    2
    53    81    82   ar
    54    81    83   ar
    55    22    21    2
    56    82    84   ar
    57    68    67    1
    58    68    71    1
    59   134   133    1
    60   133   132    1
    61    21    20    1
    62    83    85   ar
    63   128   127    2
    64    71    72    1
    65    84    86   ar
    66    99   100    1
    67    20    23    1
    68    20    19    1
    69    23    24    1
    70   100   101    1
    71   100   103    1
    72   127   126    1
    73   145   144    1
    74   130   129    1
    75    85    86   ar
    76   105   104    1
    77    26    24    1
    78   129   126    1
    79   129   131    1
    80    86    87    1
    81   101   102    2
    82    25    24    1
    83    49    50    1
    84   146   144    1
    85    72    73    1
    86   144   143    1
    87   126   125    1
    88   103   104    1
    89   104   106    1
    90   178   177    2
    91    50    51    1
    92    50    53    1
    93   179   180    1
    94   179   176    1
    95    74    73    2
    96    73    75   am
    97   121   120    2
    98   177   176    1
    99    55    53    1
   100   143   140    1
   101   180   182   ar
   102   180   181   ar
   103    51    52    2
   104   140   139    1
   105   140   141    1
   106   182   184   ar
   107   176   175    1
   108    53    54    1
   109   181   183   ar
   110   120   119    1
   111   184   185   ar
   112   183   185   ar
   113   185   186    1
   114   141   142    2
   115   118   119    1
   116   119   122    1
   117   122   123    1
   118   122   124    1
   119    15    14    2
   120   169   168    2
   121    14    13    1
   122   153   152    1
   123   152   154    1
   124   152   151    1
   125   114   113    1
   126   114   115    2
   127    18    16    1
   128   113   112    1
   129   147   148    1
   130   148   151    1
   131   148   149    1
   132   117   115    1
   133    56    57    1
   134   168   167    1
   135   115   116    1
   136    13    16    1
   137    13    12    1
   138   170   167    1
   139   170   171    1
   140   110   109    2
   141   111   112    1
   142   111   108    1
   143    16    17    1
   144   149   150    2
   145   167   166    1
   146   172   171    1
   147   172   173    1
   148    57    58    1
   149    57    60    1
   150   109   108    1
   151    59    58    2
   152   174   173    1
   153   108   107    1
   154    61    60    1
   155    61    62    1
   156    63    62    1
   157    63    64    2
   158    66    64    1
   159   165   163    1
   160   155   156    1
   161   156   159    1
   162   156   157    1
   163    64    65    1
   164   162   163    2
   165   162   161    1
   166   159   160    1
   167   163   164    1
   168   160   161    1
   169   157   158    2
