@<TRIPOS>MOLECULE
tmp/2ovhA00.pdb
 160 152 0 0 0
SMALL
GASTEIGER

@<TRIPOS>ATOM
      1  N         26.7840    1.3870   36.1310 N.3    43  GLU43      -0.1245
      2  CA        25.8220    2.0820   36.9790 C.3    43  GLU43       0.1567
      3  C         26.5500    3.0060   37.9420 C.2    43  GLU43       0.2260
      4  O         26.1050    4.1270   38.1900 O.2    43  GLU43      -0.2867
      5  CB        24.9610    1.0890   37.7740 C.3    43  GLU43       0.0388
      6  CG        23.7720    1.7570   38.4520 C.3    43  GLU43       0.1160
      7  CD        22.7360    0.7820   38.9770 C.2    43  GLU43       0.3649
      8  OE1       23.0010    0.1010   39.9830 O.co2  43  GLU43      -0.2457
      9  OE2       21.6540    0.6800   38.3660 O.co2  43  GLU43      -0.2457
     10  N         27.7030    6.0810   36.1390 N.3    46  LEU46      -0.1231
     11  CA        26.5700    6.9530   35.8100 C.3    46  LEU46       0.1693
     12  C         26.2500    7.8720   36.9930 C.2    46  LEU46       0.2591
     13  O         26.1180    9.0850   36.8300 O.2    46  LEU46      -0.2718
     14  CB        25.3350    6.1210   35.4450 C.3    46  LEU46       0.0284
     15  CG        24.0700    6.9190   35.0920 C.3    46  LEU46       0.0019
     16  CD1       24.3820    7.9260   33.9910 C.3    46  LEU46       0.0001
     17  CD2       22.9690    5.9690   34.6450 C.3    46  LEU46       0.0001
     18  N         26.1260    7.2940   38.1840 N.am   47  LEU47      -0.1980
     19  CA        25.8520    8.0900   39.3750 C.3    47  LEU47       0.1596
     20  C         26.9810    9.0940   39.5770 C.2    47  LEU47       0.2287
     21  O         26.7590   10.2210   40.0230 O.2    47  LEU47      -0.2864
     22  CB        25.7420    7.1870   40.6030 C.3    47  LEU47       0.0297
     23  CG        24.5130    6.2760   40.6100 C.3    47  LEU47       0.0022
     24  CD1       24.6030    5.2790   41.7660 C.3    47  LEU47       0.0001
     25  CD2       23.2590    7.1320   40.7240 C.3    47  LEU47       0.0001
     26  N         26.5270   12.0470   37.2110 N.3    50  VAL50      -0.1231
     27  CA        25.5000   12.9520   37.7080 C.3    50  VAL50       0.1692
     28  C         26.0630   13.8390   38.8120 C.2    50  VAL50       0.2591
     29  O         25.8380   15.0490   38.8160 O.2    50  VAL50      -0.2718
     30  CB        24.2850   12.1870   38.2700 C.3    50  VAL50       0.0266
     31  CG1       23.3460   13.1620   38.9930 C.3    50  VAL50       0.0020
     32  CG2       23.5480   11.4860   37.1350 C.3    50  VAL50       0.0020
     33  N         26.7970   13.2360   39.7440 N.am   51  LYS51      -0.1980
     34  CA        27.3940   13.9830   40.8470 C.3    51  LYS51       0.1596
     35  C         28.3610   15.0270   40.2950 C.2    51  LYS51       0.2287
     36  O         28.3410   16.1850   40.7010 O.2    51  LYS51      -0.2864
     37  CB        28.1340   13.0330   41.7880 C.3    51  LYS51       0.0298
     38  CG        28.7650   13.7240   42.9890 C.3    51  LYS51       0.0038
     39  CD        29.5200   12.7250   43.8460 C.3    51  LYS51       0.0206
     40  CE        30.2450   13.4060   44.9900 C.3    51  LYS51       0.1093
     41  NZ        31.0710   12.4230   45.7380 N.3    51  LYS51      -0.1314
     42  N         28.3770   16.4550   37.3660 N.3    53  SER53      -0.1202
     43  CA        27.6420   17.5390   36.7170 C.3    53  SER53       0.2020
     44  C         27.1800   18.6200   37.6990 C.2    53  SER53       0.2618
     45  O         27.1350   19.7980   37.3530 O.2    53  SER53      -0.2717
     46  CB        26.4250   16.9860   35.9630 C.3    53  SER53       0.2103
     47  OG        25.3960   16.5820   36.8570 O.3    53  SER53      -0.2182
     48  N         26.8490   18.2230   38.9240 N.am   54  LYS54      -0.1979
     49  CA        26.3810   19.1740   39.9320 C.3    54  LYS54       0.1596
     50  C         27.4100   20.2180   40.3480 C.2    54  LYS54       0.2287
     51  O         27.0470   21.2660   40.8860 O.2    54  LYS54      -0.2864
     52  CB        25.8970   18.4360   41.1810 C.3    54  LYS54       0.0298
     53  CG        24.6520   17.5890   40.9700 C.3    54  LYS54       0.0038
     54  CD        24.2600   16.9020   42.2640 C.3    54  LYS54       0.0206
     55  CE        23.0050   16.0700   42.1030 C.3    54  LYS54       0.1093
     56  NZ        22.6670   15.3690   43.3740 N.3    54  LYS54      -0.1314
     57  N         26.0380   24.3800   34.8440 N.3    59  PHE59      -0.1227
     58  CA        25.0870   23.2790   34.6900 C.3    59  PHE59       0.1736
     59  C         23.8170   23.3260   35.5470 C.2    59  PHE59       0.2595
     60  O         22.7070   23.1670   35.0340 O.2    59  PHE59      -0.2718
     61  CB        25.7870   21.9380   34.9400 C.3    59  PHE59       0.0547
     62  CG        24.9930   20.7510   34.4750 C.ar   59  PHE59      -0.0202
     63  CD1       24.8200   20.5060   33.1200 C.ar   59  PHE59      -0.0042
     64  CD2       24.4100   19.8890   35.3860 C.ar   59  PHE59      -0.0042
     65  CE1       24.0780   19.4160   32.6850 C.ar   59  PHE59      -0.0003
     66  CE2       23.6670   18.8000   34.9590 C.ar   59  PHE59      -0.0003
     67  CZ        23.5010   18.5630   33.6090 C.ar   59  PHE59      -0.0000
     68  N         23.9750   23.5210   36.8510 N.am   60  ARG60      -0.1980
     69  CA        22.8270   23.5400   37.7440 C.3    60  ARG60       0.1597
     70  C         21.8670   24.7010   37.5190 C.2    60  ARG60       0.2287
     71  O         20.7430   24.6800   38.0160 O.2    60  ARG60      -0.2864
     72  CB        23.2970   23.5040   39.1990 C.3    60  ARG60       0.0334
     73  CG        23.9270   22.1720   39.5810 C.3    60  ARG60       0.0492
     74  CD        22.9230   21.0290   39.4390 C.3    60  ARG60       0.2205
     75  NE        22.3290   20.6580   40.7220 N.pl3  60  ARG60      -0.0865
     76  CZ        21.2930   19.8350   40.8670 C.cat  60  ARG60       0.5346
     77  NH1       20.7120   19.2850   39.8050 N.pl3  60  ARG60       0.1354
     78  NH2       20.8510   19.5450   42.0840 N.pl3  60  ARG60       0.1354
     79  N         15.9650   21.9130   35.1850 N.3    64  ILE64      -0.1231
     80  CA        16.1830   20.5370   35.6090 C.3    64  ILE64       0.1692
     81  C         15.8880   19.5460   34.4830 C.2    64  ILE64       0.2592
     82  O         16.5170   18.4910   34.4090 O.2    64  ILE64      -0.2718
     83  CB        15.3180   20.1930   36.8520 C.3    64  ILE64       0.0266
     84  CG1       15.7080   18.8160   37.3960 C.3    64  ILE64       0.0019
     85  CG2       13.8460   20.2270   36.4900 C.3    64  ILE64       0.0020
     86  CD1       17.1510   18.7360   37.8730 C.3    64  ILE64       0.0001
     87  N         14.9400   19.8830   33.6080 N.am   65  ASP65      -0.1974
     88  CA        14.5970   19.0090   32.4830 C.3    65  ASP65       0.1709
     89  C         15.7410   18.9540   31.4740 C.2    65  ASP65       0.2293
     90  O         15.9670   17.9200   30.8390 O.2    65  ASP65      -0.2864
     91  CB        13.3430   19.5000   31.7590 C.3    65  ASP65       0.1436
     92  CG        12.0660   19.2230   32.5310 C.2    65  ASP65       0.3671
     93  OD1       12.1250   18.6030   33.6180 O.co2  65  ASP65      -0.2456
     94  OD2       10.9950   19.6310   32.0370 O.co2  65  ASP65      -0.2456
     95  N         18.8880   19.4300   32.2950 N.3    67  GLN67      -0.1231
     96  CA        19.9420   18.6960   32.9960 C.3    67  GLN67       0.1698
     97  C         19.7710   17.1980   32.7580 C.2    67  GLN67       0.2592
     98  O         20.7230   16.4990   32.4060 O.2    67  GLN67      -0.2718
     99  CB        19.8820   18.9800   34.5010 C.3    67  GLN67       0.0381
    100  CG        20.2940   20.3960   34.9020 C.3    67  GLN67       0.0905
    101  CD        20.2440   20.6060   36.4020 C.2    67  GLN67       0.2608
    102  OE1       20.7500   19.7870   37.1660 O.2    67  GLN67      -0.2717
    103  NE2       19.6420   21.7130   36.8330 N.am   67  GLN67      -0.0878
    104  N         18.5490   16.7140   32.9550 N.am   68  ILE68      -0.1980
    105  CA        18.2350   15.3070   32.7610 C.3    68  ILE68       0.1595
    106  C         18.4850   14.9130   31.3050 C.2    68  ILE68       0.2287
    107  O         19.1210   13.8940   31.0240 O.2    68  ILE68      -0.2864
    108  CB        16.7550   15.0180   33.1200 C.3    68  ILE68       0.0276
    109  CG1       16.5110   15.3080   34.6050 C.3    68  ILE68       0.0022
    110  CG2       16.4160   13.5690   32.8170 C.3    68  ILE68       0.0022
    111  CD1       15.0500   15.1690   35.0330 C.3    68  ILE68       0.0001
    112  N         22.2710   14.7010   30.4070 N.3    71  ILE71      -0.1231
    113  CA        22.9240   13.5210   30.9550 C.3    71  ILE71       0.1692
    114  C         22.4860   12.2930   30.1540 C.2    71  ILE71       0.2591
    115  O         23.3120   11.4590   29.7810 O.2    71  ILE71      -0.2718
    116  CB        22.5600   13.2970   32.4350 C.3    71  ILE71       0.0266
    117  CG1       22.9920   14.5010   33.2710 C.3    71  ILE71       0.0019
    118  CG2       23.2470   12.0360   32.9520 C.3    71  ILE71       0.0020
    119  CD1       24.4630   14.7460   33.2560 C.3    71  ILE71       0.0001
    120  N         21.1850   12.1910   29.8890 N.am   72  GLN72      -0.1979
    121  CA        20.6420   11.0660   29.1320 C.3    72  GLN72       0.1601
    122  C         21.3020   10.9070   27.7740 C.2    72  GLN72       0.2287
    123  O         21.6250    9.7950   27.3580 O.2    72  GLN72      -0.2864
    124  CB        19.1390   11.2380   28.9000 C.3    72  GLN72       0.0394
    125  CG        18.2560   11.0250   30.1060 C.3    72  GLN72       0.0908
    126  CD        16.7850   11.1910   29.7580 C.2    72  GLN72       0.2608
    127  OE1       16.3380   12.2810   29.3930 O.2    72  GLN72      -0.2717
    128  NE2       16.0270   10.1040   29.8580 N.am   72  GLN72      -0.0878
    129  N         25.7450   10.3780   28.6030 N.3    75  TRP75      -0.1241
    130  CA        26.4470    9.4520   29.4930 C.3    75  TRP75       0.1605
    131  C         27.3290    8.4250   28.7810 C.2    75  TRP75       0.2264
    132  O         28.4270    8.1430   29.2410 O.2    75  TRP75      -0.2867
    133  CB        25.4790    8.7190   30.4440 C.3    75  TRP75       0.0550
    134  CG        24.4570    7.7950   29.8130 C.ar   75  TRP75       0.0003
    135  CD1       23.1520    8.0790   29.5410 C.ar   75  TRP75       0.0946
    136  CD2       24.6650    6.4260   29.4210 C.ar   75  TRP75       0.0152
    137  NE1       22.5350    6.9700   29.0050 N.ar   75  TRP75      -0.2442
    138  CE2       23.4390    5.9480   28.9280 C.ar   75  TRP75       0.0810
    139  CE3       25.7730    5.5690   29.4410 C.ar   75  TRP75       0.0012
    140  CZ2       23.2840    4.6470   28.4690 C.ar   75  TRP75       0.0191
    141  CZ3       25.6210    4.2750   28.9800 C.ar   75  TRP75       0.0001
    142  CH2       24.3800    3.8250   28.4990 C.ar   75  TRP75       0.0015
    143  N         15.1250    2.8550   22.4700 N.3   227  GLN227     -0.1245
    144  CA        16.5620    2.8840   22.2270 C.3   227  GLN227      0.1566
    145  C         16.9500    3.4460   20.8660 C.2   227  GLN227      0.2260
    146  O         18.0460    3.9820   20.7040 O.2   227  GLN227     -0.2867
    147  CB        17.1420    1.4800   22.3810 C.3   227  GLN227      0.0367
    148  CG        17.1910    1.0150   23.8200 C.3   227  GLN227      0.0905
    149  CD        18.0490    1.9240   24.6800 C.2   227  GLN227      0.2608
    150  OE1       19.2570    2.0370   24.4680 O.2   227  GLN227     -0.2717
    151  NE2       17.4270    2.5820   25.6510 N.am  227  GLN227     -0.0878
    152  N         18.7120    6.5870   20.1440 N.3   230  LYS230     -0.1245
    153  CA        20.1160    6.5860   20.5350 C.3   230  LYS230      0.1561
    154  C         21.0320    5.9190   19.5090 C.2   230  LYS230      0.2260
    155  O         22.2510    6.0760   19.5660 O.2   230  LYS230     -0.2867
    156  CB        20.2900    5.9310   21.9120 C.3   230  LYS230      0.0271
    157  CG        19.8560    6.8410   23.0630 C.3   230  LYS230      0.0035
    158  CD        20.2160    6.2820   24.4360 C.3   230  LYS230      0.0206
    159  CE        19.9720    7.3280   25.5300 C.3   230  LYS230      0.1093
    160  NZ        20.2800    6.8270   26.9060 N.3   230  LYS230     -0.1314
@<TRIPOS>BOND
     1   154   155    2
     2   154   153    1
     3   152   153    1
     4   153   156    1
     5   146   145    2
     6   145   144    1
     7   156   157    1
     8   144   147    1
     9   144   143    1
    10   147   148    1
    11   157   158    1
    12   148   149    1
    13   158   159    1
    14   150   149    2
    15   149   151   am
    16   159   160    1
    17   123   122    2
    18   122   121    1
    19   140   142   ar
    20   140   138   ar
    21   142   141   ar
    22   129   130    1
    23   131   132    2
    24   131   130    1
    25   124   121    1
    26   124   125    1
    27   138   137   ar
    28   138   136   ar
    29   141   139   ar
    30   137   135   ar
    31   121   120    1
    32   127   126    2
    33   136   139   ar
    34   136   134   ar
    35   130   133    1
    36   135   134   ar
    37   126   128   am
    38   126   125    1
    39   115   114    2
    40   134   133    1
    41   120   114   am
    42   114   113    1
    43   112   113    1
    44    90    89    2
    45   113   116    1
    46   107   106    2
    47   106   105    1
    48    89    88    1
    49    91    88    1
    50    91    92    1
    51    94    92   ar
    52    95    96    1
    53    98    97    2
    54   116   118    1
    55   116   117    1
    56    88    87    1
    57    92    93   ar
    58    65    63   ar
    59    65    67   ar
    60    97   104   am
    61    97    96    1
    62   105   104    1
    63   105   108    1
    64   110   108    1
    65    96    99    1
    66    63    62   ar
    67   108   109    1
    68   119   117    1
    69    87    81   am
    70    67    66   ar
    71    16    15    1
    72    82    81    2
    73    62    61    1
    74    62    64   ar
    75    81    80    1
    76    99   100    1
    77   109   111    1
    78    17    15    1
    79    58    57    1
    80    58    61    1
    81    58    59    1
    82   100   101    1
    83    66    64   ar
    84    60    59    2
    85    15    14    1
    86    79    80    1
    87    14    11    1
    88    59    68   am
    89    80    83    1
    90    11    10    1
    91    11    12    1
    92    46    43    1
    93    46    47    1
    94     1     2    1
    95   101   103   am
    96   101   102    2
    97    85    83    1
    98    43    42    1
    99    43    44    1
   100    13    12    2
   101    68    69    1
   102    83    84    1
   103     2     5    1
   104     2     3    1
   105    12    18   am
   106    32    30    1
   107    26    27    1
   108    45    44    2
   109    84    86    1
   110    70    69    1
   111    70    71    2
   112    44    48   am
   113    27    30    1
   114    27    28    1
   115    69    72    1
   116     5     6    1
   117     3     4    2
   118    18    19    1
   119    30    31    1
   120     9     7   ar
   121     6     7    1
   122    28    29    2
   123    28    33   am
   124    48    49    1
   125     7     8   ar
   126    72    73    1
   127    19    20    1
   128    19    22    1
   129    74    73    1
   130    74    75    1
   131    20    21    2
   132    33    34    1
   133    77    76    1
   134    49    50    1
   135    49    52    1
   136    35    36    2
   137    35    34    1
   138    50    51    2
   139    22    23    1
   140    23    25    1
   141    23    24    1
   142    75    76    2
   143    34    37    1
   144    76    78    1
   145    53    52    1
   146    53    54    1
   147    37    38    1
   148    55    54    1
   149    55    56    1
   150    38    39    1
   151    39    40    1
   152    40    41    1
