@<TRIPOS>MOLECULE
tmp/2ovmA00.pdb
 142 135 0 0 0
SMALL
GASTEIGER

@<TRIPOS>ATOM
      1  N        -29.0790   53.2330   51.1330 N.3    42  GLU42      -0.1245
      2  CA       -28.9470   54.4320   51.9480 C.3    42  GLU42       0.1567
      3  C        -27.7990   54.3000   52.9370 C.2    42  GLU42       0.2260
      4  O        -27.0580   55.2560   53.1710 O.2    42  GLU42      -0.2867
      5  CB       -30.2580   54.7220   52.6850 C.3    42  GLU42       0.0388
      6  CG       -30.1530   55.7860   53.7680 C.3    42  GLU42       0.1160
      7  CD       -31.4750   56.5150   54.0110 C.2    42  GLU42       0.3649
      8  OE1      -32.0650   56.3700   55.1070 O.co2  42  GLU42      -0.2457
      9  OE2      -31.9250   57.2440   53.0950 O.co2  42  GLU42      -0.2457
     10  N        -24.4730   54.8810   51.3340 N.3    45  LEU45      -0.1231
     11  CA       -24.2690   56.2820   50.9720 C.3    45  LEU45       0.1693
     12  C        -23.6420   57.0160   52.1550 C.2    45  LEU45       0.2591
     13  O        -22.6690   57.7550   51.9910 O.2    45  LEU45      -0.2718
     14  CB       -25.5960   56.9330   50.5760 C.3    45  LEU45       0.0284
     15  CG       -25.5260   58.3920   50.1160 C.3    45  LEU45       0.0019
     16  CD1      -24.4820   58.5330   49.0280 C.3    45  LEU45       0.0001
     17  CD2      -26.8930   58.8420   49.6120 C.3    45  LEU45       0.0001
     18  N        -24.1950   56.8070   53.3460 N.am   46  LEU46      -0.1980
     19  CA       -23.6390   57.4280   54.5410 C.3    46  LEU46       0.1596
     20  C        -22.1970   56.9500   54.6710 C.2    46  LEU46       0.2287
     21  O        -21.3180   57.6820   55.1200 O.2    46  LEU46      -0.2864
     22  CB       -24.4270   57.0020   55.7770 C.3    46  LEU46       0.0297
     23  CG       -25.8690   57.5020   55.7710 C.3    46  LEU46       0.0022
     24  CD1      -26.6620   56.8280   56.8810 C.3    46  LEU46       0.0001
     25  CD2      -25.8670   59.0270   55.9170 C.3    46  LEU46       0.0001
     26  N        -19.9980   58.9490   52.0900 N.3    49  VAL49      -0.1245
     27  CA       -19.7770   60.3070   52.5700 C.3    49  VAL49       0.1561
     28  C        -18.7230   60.2820   53.6630 C.2    49  VAL49       0.2260
     29  O        -17.8180   61.1220   53.7170 O.2    49  VAL49      -0.2867
     30  CB       -21.0560   60.9320   53.1750 C.3    49  VAL49       0.0252
     31  CG1      -20.6800   62.1510   54.0190 C.3    49  VAL49       0.0019
     32  CG2      -22.0190   61.3490   52.0640 C.3    49  VAL49       0.0019
     33  N        -15.1830   59.3910   52.3600 N.3    52  SER52      -0.1202
     34  CA       -14.5940   60.5610   51.7030 C.3    52  SER52       0.2020
     35  C        -13.9460   61.5480   52.6770 C.2    52  SER52       0.2618
     36  O        -12.9480   62.1870   52.3480 O.2    52  SER52      -0.2717
     37  CB       -15.6430   61.2910   50.8480 C.3    52  SER52       0.2103
     38  OG       -16.4870   62.1220   51.6290 O.3    52  SER52      -0.2182
     39  N        -14.5030   61.6600   53.8790 N.am   53  LYS53      -0.1979
     40  CA       -13.9620   62.5720   54.8820 C.3    53  LYS53       0.1596
     41  C        -12.5730   62.1890   55.3850 C.2    53  LYS53       0.2287
     42  O        -11.9510   62.9610   56.1120 O.2    53  LYS53      -0.2864
     43  CB       -14.9290   62.7060   56.0680 C.3    53  LYS53       0.0298
     44  CG       -16.0770   63.6690   55.7950 C.3    53  LYS53       0.0038
     45  CD       -16.8970   63.9750   57.0350 C.3    53  LYS53       0.0206
     46  CE       -17.8270   62.8350   57.3910 C.3    53  LYS53       0.1093
     47  NZ       -18.6410   63.1300   58.6120 N.3    53  LYS53      -0.1314
     48  N         -9.6420   65.4610   49.9000 N.3    58  PHE58      -0.1227
     49  CA       -11.0690   65.7310   49.7470 C.3    58  PHE58       0.1736
     50  C        -11.6400   66.8880   50.5740 C.2    58  PHE58       0.2595
     51  O        -12.2960   67.7820   50.0360 O.2    58  PHE58      -0.2718
     52  CB       -11.8800   64.4630   50.0430 C.3    58  PHE58       0.0547
     53  CG       -13.2670   64.4890   49.4680 C.ar   58  PHE58      -0.0202
     54  CD1      -13.4630   64.4280   48.0960 C.ar   58  PHE58      -0.0042
     55  CD2      -14.3760   64.5920   50.2940 C.ar   58  PHE58      -0.0042
     56  CE1      -14.7450   64.4820   47.5590 C.ar   58  PHE58      -0.0003
     57  CE2      -15.6590   64.6480   49.7610 C.ar   58  PHE58      -0.0003
     58  CZ       -15.8420   64.5880   48.3970 C.ar   58  PHE58      -0.0000
     59  N        -11.4010   66.8660   51.8790 N.am   59  ARG59      -0.1980
     60  CA       -11.9330   67.8980   52.7540 C.3    59  ARG59       0.1597
     61  C        -11.4210   69.2900   52.4480 C.2    59  ARG59       0.2287
     62  O        -12.0820   70.2780   52.7590 O.2    59  ARG59      -0.2864
     63  CB       -11.6600   67.5390   54.2130 C.3    59  ARG59       0.0334
     64  CG       -12.3850   66.2800   54.6580 C.3    59  ARG59       0.0492
     65  CD       -13.9100   66.4180   54.5260 C.3    59  ARG59       0.2205
     66  NE       -14.5460   66.8010   55.7890 N.pl3  59  ARG59      -0.0865
     67  CZ       -15.8010   67.2360   55.9070 C.cat  59  ARG59       0.5346
     68  NH1      -16.5750   67.3530   54.8420 N.pl3  59  ARG59       0.1354
     69  NH2      -16.2810   67.5570   57.0990 N.pl3  59  ARG59       0.1354
     70  N        -16.7090   72.9990   50.2070 N.3    63  ILE63      -0.1231
     71  CA       -17.8200   72.1660   50.6450 C.3    63  ILE63       0.1692
     72  C        -18.8150   71.9080   49.5150 C.2    63  ILE63       0.2592
     73  O        -19.3510   70.8110   49.4000 O.2    63  ILE63      -0.2718
     74  CB       -18.5550   72.7920   51.8710 C.3    63  ILE63       0.0266
     75  CG1      -19.4670   71.7550   52.5260 C.3    63  ILE63       0.0019
     76  CG2      -19.3940   73.9790   51.4410 C.3    63  ILE63       0.0020
     77  CD1      -18.7400   70.5260   53.0570 C.3    63  ILE63       0.0001
     78  N        -19.0590   72.9020   48.6700 N.am   64  ASP64      -0.1974
     79  CA       -19.9890   72.7050   47.5600 C.3    64  ASP64       0.1709
     80  C        -19.4710   71.6750   46.5650 C.2    64  ASP64       0.2293
     81  O        -20.2610   70.9530   45.9590 O.2    64  ASP64      -0.2864
     82  CB       -20.2690   74.0230   46.8420 C.3    64  ASP64       0.1436
     83  CG       -21.1860   74.9260   47.6380 C.2    64  ASP64       0.3671
     84  OD1      -20.8680   75.2350   48.8010 O.co2  64  ASP64      -0.2456
     85  OD2      -22.2360   75.3300   47.1090 O.co2  64  ASP64      -0.2456
     86  N        -17.5020   69.1060   47.3550 N.3    66  GLN66      -0.1231
     87  CA       -17.5870   67.8130   48.0180 C.3    66  GLN66       0.1698
     88  C        -18.9830   67.2510   47.7910 C.2    66  GLN66       0.2592
     89  O        -19.1360   66.0970   47.4170 O.2    66  GLN66      -0.2718
     90  CB       -17.3160   67.9530   49.5210 C.3    66  GLN66       0.0381
     91  CG       -15.9570   68.5470   49.8710 C.3    66  GLN66       0.0905
     92  CD       -15.7040   68.5700   51.3720 C.2    66  GLN66       0.2608
     93  OE1      -14.8330   69.2940   51.8620 O.2    66  GLN66      -0.2717
     94  NE2      -16.4600   67.7660   52.1080 N.am   66  GLN66      -0.0878
     95  N        -19.9940   68.0800   48.0130 N.am   67  ILE67      -0.1980
     96  CA       -21.3670   67.6490   47.7940 C.3    67  ILE67       0.1595
     97  C        -21.5870   67.2430   46.3330 C.2    67  ILE67       0.2287
     98  O        -22.1600   66.2090   46.0170 O.2    67  ILE67      -0.2864
     99  CB       -22.3000   68.8060   48.1630 C.3    67  ILE67       0.0276
    100  CG1      -22.2420   69.0990   49.6620 C.3    67  ILE67       0.0022
    101  CG2      -23.7530   68.4360   47.8190 C.3    67  ILE67       0.0022
    102  CD1      -23.1970   70.2250   50.0610 C.3    67  ILE67       0.0001
    103  N        -19.9040   63.9030   45.4230 N.3    70  ILE70      -0.1231
    104  CA       -20.6370   62.7720   45.9730 C.3    70  ILE70       0.1692
    105  C        -21.9220   62.5080   45.1820 C.2    70  ILE70       0.2591
    106  O        -22.2940   61.3760   44.8980 O.2    70  ILE70      -0.2718
    107  CB       -20.9640   63.0870   47.4330 C.3    70  ILE70       0.0266
    108  CG1      -19.6700   63.2700   48.2260 C.3    70  ILE70       0.0019
    109  CG2      -21.7350   61.9150   48.0680 C.3    70  ILE70       0.0020
    110  CD1      -18.8950   61.9590   48.3720 C.3    70  ILE70       0.0001
    111  N        -22.6250   63.6140   44.8600 N.am   71  GLN71      -0.1979
    112  CA       -23.8680   63.4990   44.1020 C.3    71  GLN71       0.1601
    113  C        -23.6250   62.8400   42.7410 C.2    71  GLN71       0.2287
    114  O        -24.3850   62.0100   42.2650 O.2    71  GLN71      -0.2864
    115  CB       -24.4150   64.9130   43.8770 C.3    71  GLN71       0.0394
    116  CG       -25.4340   65.3370   44.9360 C.3    71  GLN71       0.0908
    117  CD       -25.7620   66.8040   44.7560 C.2    71  GLN71       0.2608
    118  OE1      -24.9870   67.6030   44.2550 O.2    71  GLN71      -0.2717
    119  NE2      -26.9850   67.1460   45.2080 N.am   71  GLN71      -0.0878
    120  N        -21.9600   58.7110   43.4110 N.3    74  TRP74      -0.1241
    121  CA       -22.2850   57.7000   44.4180 C.3    74  TRP74       0.1605
    122  C        -22.7500   56.3710   43.8030 C.2    74  TRP74       0.2264
    123  O        -22.4610   55.2880   44.2970 O.2    74  TRP74      -0.2867
    124  CB       -23.3290   58.2580   45.3910 C.3    74  TRP74       0.0550
    125  CG       -24.5970   58.5780   44.6960 C.ar   74  TRP74       0.0003
    126  CD1      -25.1010   59.8700   44.4280 C.ar   74  TRP74       0.0946
    127  CD2      -25.6740   57.6520   44.4150 C.ar   74  TRP74       0.0152
    128  NE1      -26.3980   59.8510   44.0220 N.ar   74  TRP74      -0.2442
    129  CE2      -26.7960   58.4230   44.0150 C.ar   74  TRP74       0.0810
    130  CE3      -25.7910   56.2680   44.4930 C.ar   74  TRP74       0.0012
    131  CZ2      -27.9910   57.7950   43.7040 C.ar   74  TRP74       0.0191
    132  CZ3      -26.9860   55.6410   44.1790 C.ar   74  TRP74       0.0001
    133  CH2      -28.0950   56.4120   43.7870 C.ar   74  TRP74       0.0015
    134  N        -28.7660   62.7920   35.2150 N.3   230  LYS230     -0.1245
    135  CA       -27.9650   61.6730   35.6940 C.3   230  LYS230      0.1561
    136  C        -28.0400   60.5030   34.7260 C.2   230  LYS230      0.2260
    137  O        -27.2010   59.6070   34.7620 O.2   230  LYS230     -0.2867
    138  CB       -28.4170   61.2500   37.0960 C.3   230  LYS230      0.0271
    139  CG       -27.7520   62.0570   38.2090 C.3   230  LYS230      0.0035
    140  CD       -28.2280   61.6190   39.5840 C.3   230  LYS230      0.0206
    141  CE       -27.3730   62.2230   40.6960 C.3   230  LYS230      0.1093
    142  NZ       -27.9090   61.8710   42.0490 N.3   230  LYS230     -0.1314
@<TRIPOS>BOND
     1   136   137    2
     2   136   135    1
     3   134   135    1
     4   135   138    1
     5   138   139    1
     6   139   140    1
     7   140   141    1
     8   141   142    1
     9   114   113    2
    10   113   112    1
    11   120   121    1
    12   131   133   ar
    13   131   129   ar
    14   133   132   ar
    15   122   123    2
    16   122   121    1
    17   115   112    1
    18   115   116    1
    19   129   128   ar
    20   129   127   ar
    21   128   126   ar
    22   112   111    1
    23   132   130   ar
    24   118   117    2
    25   127   130   ar
    26   127   125   ar
    27   121   124    1
    28   126   125   ar
    29   125   124    1
    30   117   116    1
    31   117   119   am
    32   111   105   am
    33   106   105    2
    34   105   104    1
    35   103   104    1
    36    81    80    2
    37   104   107    1
    38    98    97    2
    39    97    96    1
    40    80    79    1
    41    82    79    1
    42    82    83    1
    43    85    83   ar
    44    86    87    1
    45    89    88    2
    46   107   109    1
    47   107   108    1
    48    56    54   ar
    49    56    58   ar
    50    79    78    1
    51    83    84   ar
    52    88    95   am
    53    88    87    1
    54    96    95    1
    55    96    99    1
    56   101    99    1
    57    87    90    1
    58    54    53   ar
    59    99   100    1
    60   108   110    1
    61    58    57   ar
    62    78    72   am
    63    16    15    1
    64    73    72    2
    65    53    52    1
    66    53    55   ar
    67    72    71    1
    68    90    91    1
    69    17    15    1
    70   100   102    1
    71    49    48    1
    72    49    52    1
    73    49    50    1
    74    57    55   ar
    75    91    92    1
    76    51    50    2
    77    15    14    1
    78    70    71    1
    79    50    59   am
    80    14    11    1
    81    71    74    1
    82    37    38    1
    83    37    34    1
    84    11    10    1
    85    11    12    1
    86     1     2    1
    87    92    93    2
    88    92    94   am
    89    76    74    1
    90    34    33    1
    91    34    35    1
    92    74    75    1
    93    59    60    1
    94     2     5    1
    95     2     3    1
    96    13    12    2
    97    32    30    1
    98    26    27    1
    99    12    18   am
   100    36    35    2
   101    61    60    1
   102    61    62    2
   103    75    77    1
   104    27    30    1
   105    27    28    1
   106    35    39   am
   107     5     6    1
   108    60    63    1
   109     3     4    2
   110     9     7   ar
   111    30    31    1
   112    18    19    1
   113    28    29    2
   114     6     7    1
   115    39    40    1
   116     7     8   ar
   117    63    64    1
   118    65    64    1
   119    65    66    1
   120    19    20    1
   121    19    22    1
   122    20    21    2
   123    68    67    1
   124    40    41    1
   125    40    43    1
   126    41    42    2
   127    23    22    1
   128    23    25    1
   129    23    24    1
   130    66    67    2
   131    44    43    1
   132    44    45    1
   133    67    69    1
   134    45    46    1
   135    46    47    1
