@<TRIPOS>MOLECULE
tmp/2ovqB00.pdb
 244 230 0 0 0
SMALL
GASTEIGER

@<TRIPOS>ATOM
      1  N         22.6630   68.5470   30.0710 N.3   121  VAL121     -0.1231
      2  CA        23.1130   67.1760   29.9710 C.3   121  VAL121      0.1692
      3  C         22.9160   66.4060   31.2720 C.2   121  VAL121      0.2592
      4  O         22.8510   66.9920   32.3520 O.2   121  VAL121     -0.2718
      5  CB        24.6140   67.1650   29.6240 C.3   121  VAL121      0.0266
      6  CG1       25.1310   65.7490   29.5530 C.3   121  VAL121      0.0020
      7  CG2       24.8400   67.8880   28.3100 C.3   121  VAL121      0.0020
      8  N         22.8130   65.0860   31.1660 N.am  122  ILE122     -0.1966
      9  CA        22.6850   64.2430   32.3470 C.3   122  ILE122      0.1727
     10  C         24.0660   63.6070   32.4910 C.2   122  ILE122      0.2616
     11  O         24.4850   62.8390   31.6360 O.2   122  ILE122     -0.2715
     12  CB        21.5910   63.1790   32.1480 C.3   122  ILE122      0.0290
     13  CG1       20.2290   63.8790   32.0610 C.3   122  ILE122      0.0022
     14  CG2       21.6140   62.1810   33.2920 C.3   122  ILE122      0.0023
     15  CD1       19.0470   62.9570   31.9160 C.3   122  ILE122      0.0001
     16  N         24.7740   63.9590   33.5610 N.am  123  THR123     -0.1951
     17  CA        26.1290   63.4730   33.8050 C.3   123  THR123      0.1897
     18  C         26.2550   62.1680   34.5730 C.2   123  THR123      0.2313
     19  O         27.2710   61.4840   34.4820 O.2   123  THR123     -0.2863
     20  CB        26.9310   64.5030   34.5850 C.3   123  THR123      0.1794
     21  OG1       26.2690   64.7560   35.8290 O.3   123  THR123     -0.2208
     22  CG2       27.0600   65.8030   33.7960 C.3   123  THR123      0.0378
     23  N         24.3850   69.0780   34.5900 N.3   137  ASP137     -0.1239
     24  CA        25.2590   70.2330   34.6250 C.3   137  ASP137      0.1674
     25  C         24.4100   71.4980   34.7400 C.2   137  ASP137      0.2266
     26  O         24.9100   72.6080   34.5850 O.2   137  ASP137     -0.2867
     27  CB        26.1770   70.2900   33.3930 C.3   137  ASP137      0.1410
     28  CG        25.4220   70.2430   32.0730 C.2   137  ASP137      0.3668
     29  OD1       26.0800   70.4040   31.0210 O.co2 137  ASP137     -0.2456
     30  OD2       24.1920   70.0430   32.0690 O.co2 137  ASP137     -0.2456
     31  N         28.5160   66.3120   38.5010 N.3   163  TRP163     -0.1241
     32  CA        29.1760   65.3920   37.6000 C.3   163  TRP163      0.1605
     33  C         29.3760   63.9820   38.1230 C.2   163  TRP163      0.2264
     34  O         29.7290   63.0800   37.3620 O.2   163  TRP163     -0.2867
     35  CB        30.5090   65.9860   37.1460 C.3   163  TRP163      0.0550
     36  CG        30.2950   67.0740   36.1590 C.ar  163  TRP163      0.0003
     37  CD1       30.0170   68.3860   36.4210 C.ar  163  TRP163      0.0946
     38  CD2       30.2300   66.9250   34.7390 C.ar  163  TRP163      0.0152
     39  NE1       29.7800   69.0640   35.2500 N.ar  163  TRP163     -0.2442
     40  CE2       29.9030   68.1920   34.2010 C.ar  163  TRP163      0.0810
     41  CE3       30.4140   65.8430   33.8670 C.ar  163  TRP163      0.0012
     42  CZ2       29.7560   68.4060   32.8270 C.ar  163  TRP163      0.0191
     43  CZ3       30.2700   66.0550   32.5040 C.ar  163  TRP163      0.0001
     44  CH2       29.9440   67.3290   31.9950 C.ar  163  TRP163      0.0015
     45  N         31.1390   70.7500   40.3380 N.3   177  THR177     -0.1218
     46  CA        32.2530   71.5670   39.8720 C.3   177  THR177      0.1862
     47  C         32.4720   72.6590   40.9190 C.2   177  THR177      0.2287
     48  O         33.5580   73.2440   41.0030 O.2   177  THR177     -0.2866
     49  CB        31.9550   72.2270   38.4990 C.3   177  THR177      0.1770
     50  OG1       30.6650   72.8570   38.5260 O.3   177  THR177     -0.2211
     51  CG2       31.9850   71.1850   37.3910 C.3   177  THR177      0.0375
     52  N         33.2200   72.3540   43.5880 N.3   179  ARG179     -0.1245
     53  CA        34.2090   71.7810   44.5030 C.3   179  ARG179      0.1563
     54  C         33.7090   71.0610   45.7520 C.2   179  ARG179      0.2260
     55  O         34.5170   70.5900   46.5530 O.2   179  ARG179     -0.2867
     56  CB        35.1950   72.8660   44.9270 C.3   179  ARG179      0.0307
     57  CG        35.8700   73.5610   43.7690 C.3   179  ARG179      0.0489
     58  CD        36.0290   75.0220   44.1000 C.3   179  ARG179      0.2205
     59  NE        36.6800   75.7730   43.0360 N.pl3 179  ARG179     -0.0865
     60  CZ        36.8670   77.0850   43.0790 C.cat 179  ARG179      0.5346
     61  NH1       36.4490   77.7750   44.1350 N.pl3 179  ARG179      0.1354
     62  NH2       37.4650   77.7050   42.0720 N.pl3 179  ARG179      0.1354
     63  N         39.2120   71.7760   43.5680 N.3   200  SER200     -0.1202
     64  CA        38.8460   71.6800   42.1560 C.3   200  SER200      0.2020
     65  C         37.6590   70.7170   41.9850 C.2   200  SER200      0.2619
     66  O         37.3290   69.9770   42.9080 O.2   200  SER200     -0.2717
     67  CB        40.0540   71.1880   41.3630 C.3   200  SER200      0.2103
     68  OG        39.7320   71.0420   39.9990 O.3   200  SER200     -0.2182
     69  N         37.0340   70.7230   40.8080 N.am  201  THR201     -0.1952
     70  CA        35.8730   69.8690   40.5150 C.3   201  THR201      0.1897
     71  C         35.9170   68.4430   41.0580 C.2   201  THR201      0.2313
     72  O         36.9270   67.7340   40.9180 O.2   201  THR201     -0.2863
     73  CB        35.6210   69.7790   38.9930 C.3   201  THR201      0.1794
     74  OG1       35.0280   70.9970   38.5400 O.3   201  THR201     -0.2208
     75  CG2       34.6840   68.6170   38.6580 C.3   201  THR201      0.0378
     76  N         35.2140   65.1130   40.4580 N.3   203  ARG203     -0.1245
     77  CA        35.0120   64.2920   39.2750 C.3   203  ARG203      0.1563
     78  C         34.3610   62.9280   39.4400 C.2   203  ARG203      0.2260
     79  O         33.4690   62.5750   38.6730 O.2   203  ARG203     -0.2867
     80  CB        36.3500   64.1150   38.5520 C.3   203  ARG203      0.0307
     81  CG        36.1970   63.6240   37.1270 C.3   203  ARG203      0.0489
     82  CD        35.4390   64.6620   36.3320 C.3   203  ARG203      0.2205
     83  NE        35.0630   64.1990   35.0070 N.pl3 203  ARG203     -0.0865
     84  CZ        33.9800   63.4790   34.7400 C.cat 203  ARG203      0.5346
     85  NH1       33.1560   63.1280   35.7130 N.pl3 203  ARG203      0.1354
     86  NH2       33.7140   63.1290   33.4910 N.pl3 203  ARG203      0.1354
     87  N         39.7000   67.0490   40.4260 N.3   217  ARG217     -0.1245
     88  CA        40.6560   67.5800   39.4620 C.3   217  ARG217      0.1563
     89  C         41.8460   68.2290   40.1670 C.2   217  ARG217      0.2260
     90  O         42.7560   68.7220   39.5090 O.2   217  ARG217     -0.2867
     91  CB        39.9800   68.5830   38.5260 C.3   217  ARG217      0.0307
     92  CG        39.3230   67.9280   37.3170 C.3   217  ARG217      0.0489
     93  CD        38.5310   68.9130   36.4910 C.3   217  ARG217      0.2205
     94  NE        38.0330   68.2860   35.2730 N.pl3 217  ARG217     -0.0865
     95  CZ        37.2690   68.8990   34.3750 C.cat 217  ARG217      0.5346
     96  NH1       36.9120   70.1630   34.5580 N.pl3 217  ARG217      0.1354
     97  NH2       36.8560   68.2430   33.2980 N.pl3 217  ARG217      0.1354
     98  N         40.2970   60.7590   37.6840 N.3   243  ARG243     -0.1245
     99  CA        39.0900   60.5700   36.8840 C.3   243  ARG243      0.1563
    100  C         38.1830   59.4560   37.3520 C.2   243  ARG243      0.2260
    101  O         36.9710   59.5390   37.1860 O.2   243  ARG243     -0.2867
    102  CB        39.4740   60.3170   35.4200 C.3   243  ARG243      0.0307
    103  CG        38.2960   60.1410   34.4570 C.3   243  ARG243      0.0489
    104  CD        37.4640   61.4060   34.3310 C.3   243  ARG243      0.2205
    105  NE        36.3980   61.2340   33.3520 N.pl3 243  ARG243     -0.0865
    106  CZ        35.3060   60.5030   33.5500 C.cat 243  ARG243      0.5346
    107  NH1       35.1280   59.8830   34.7060 N.pl3 243  ARG243      0.1354
    108  NH2       34.4080   60.3630   32.5810 N.pl3 243  ARG243      0.1354
    109  N         44.7900   61.2880   35.4460 N.3   257  TYR257     -0.1241
    110  CA        45.3390   61.7140   34.1730 C.3   257  TYR257      0.1605
    111  C         46.8630   61.7300   34.1330 C.2   257  TYR257      0.2264
    112  O         47.4510   62.3590   33.2580 O.2   257  TYR257     -0.2867
    113  CB        44.7990   63.0840   33.7890 C.3   257  TYR257      0.0534
    114  CG        43.3780   63.0480   33.2810 C.ar  257  TYR257     -0.0201
    115  CD1       42.7540   61.8360   32.9660 C.ar  257  TYR257     -0.0009
    116  CD2       42.6560   64.2260   33.1040 C.ar  257  TYR257     -0.0009
    117  CE1       41.4480   61.8030   32.4930 C.ar  257  TYR257      0.0417
    118  CE2       41.3540   64.2050   32.6330 C.ar  257  TYR257      0.0417
    119  CZ        40.7540   62.9930   32.3330 C.ar  257  TYR257      0.1957
    120  OH        39.4510   62.9800   31.9090 O.3   257  TYR257     -0.2866
    121  N         46.2670   58.8800   29.7770 N.3   281  ARG281     -0.1245
    122  CA        45.2470   59.0180   30.8040 C.3   281  ARG281      0.1563
    123  C         44.4560   57.7460   31.0700 C.2   281  ARG281      0.2260
    124  O         44.1050   57.0140   30.1420 O.2   281  ARG281     -0.2867
    125  CB        44.2620   60.1010   30.4080 C.3   281  ARG281      0.0307
    126  CG        44.8520   61.4580   30.1560 C.3   281  ARG281      0.0489
    127  CD        43.7440   62.3910   29.7270 C.3   281  ARG281      0.2205
    128  NE        44.1350   63.7940   29.7840 N.pl3 281  ARG281     -0.0865
    129  CZ        43.3010   64.7980   29.5340 C.cat 281  ARG281      0.5346
    130  NH1       42.0370   64.5440   29.2080 N.pl3 281  ARG281      0.1354
    131  NH2       43.7190   66.0550   29.6220 N.pl3 281  ARG281      0.1354
    132  N         40.9730   56.4000   32.3140 N.3   283  TYR283     -0.1241
    133  CA        39.6130   56.8950   32.4830 C.3   283  TYR283      0.1605
    134  C         38.6860   56.0130   33.2960 C.2   283  TYR283      0.2264
    135  O         37.8130   56.5230   34.0000 O.2   283  TYR283     -0.2867
    136  CB        38.9640   57.1190   31.1060 C.3   283  TYR283      0.0534
    137  CG        39.2730   58.4380   30.4440 C.ar  283  TYR283     -0.0201
    138  CD1       38.3000   59.4260   30.3410 C.ar  283  TYR283     -0.0009
    139  CD2       40.5340   58.7000   29.9170 C.ar  283  TYR283     -0.0009
    140  CE1       38.5720   60.6530   29.7260 C.ar  283  TYR283      0.0417
    141  CE2       40.8250   59.9230   29.2960 C.ar  283  TYR283      0.0417
    142  CZ        39.8420   60.8970   29.2060 C.ar  283  TYR283      0.1957
    143  OH        40.1250   62.1130   28.6150 O.3   283  TYR283     -0.2866
    144  N         40.3510   52.6970   20.7140 N.3   320  SER320     -0.1202
    145  CA        40.2270   54.0450   21.2180 C.3   320  SER320      0.2020
    146  C         40.0210   54.0480   22.7320 C.2   320  SER320      0.2618
    147  O         40.3990   53.1050   23.4120 O.2   320  SER320     -0.2717
    148  CB        39.0800   54.7450   20.4920 C.3   320  SER320      0.2103
    149  OG        38.9440   56.0910   20.9150 O.3   320  SER320     -0.2182
    150  N         39.4240   55.1120   23.2520 N.am  321  LEU321     -0.1979
    151  CA        39.1910   55.2590   24.6870 C.3   321  LEU321      0.1596
    152  C         38.1850   54.2750   25.2760 C.2   321  LEU321      0.2287
    153  O         37.0580   54.1790   24.8110 O.2   321  LEU321     -0.2864
    154  CB        38.6900   56.6720   24.9770 C.3   321  LEU321      0.0297
    155  CG        38.9680   57.3270   26.3280 C.3   321  LEU321      0.0022
    156  CD1       37.8190   58.2490   26.6640 C.3   321  LEU321      0.0001
    157  CD2       39.1360   56.3000   27.4100 C.3   321  LEU321      0.0001
    158  N         35.7970   53.9570   27.7920 N.3   323  SER323     -0.1217
    159  CA        35.0750   54.8410   28.6980 C.3   323  SER323      0.1889
    160  C         34.4240   54.1460   29.8890 C.2   323  SER323      0.2288
    161  O         34.4320   54.6600   31.0120 O.2   323  SER323     -0.2866
    162  CB        33.9960   55.5960   27.9120 C.3   323  SER323      0.2089
    163  OG        33.0060   54.7040   27.4150 O.3   323  SER323     -0.2183
    164  N         35.1700   53.9000   22.6900 N.3   337  ALA337     -0.1245
    165  CA        34.8780   54.9370   21.7070 C.3   337  ALA337      0.1562
    166  C         35.0270   54.4250   20.2730 C.2   337  ALA337      0.2260
    167  O         34.5710   55.0720   19.3330 O.2   337  ALA337     -0.2867
    168  CB        35.7840   56.1460   21.9350 C.3   337  ALA337      0.0290
    169  N         28.8820   54.9260   16.5170 N.3   363  SER363     -0.1202
    170  CA        29.8030   55.8310   17.1710 C.3   363  SER363      0.2020
    171  C         30.1430   55.2540   18.5350 C.2   363  SER363      0.2619
    172  O         29.7650   54.1280   18.8480 O.2   363  SER363     -0.2717
    173  CB        29.2030   57.2340   17.2900 C.3   363  SER363      0.2103
    174  OG        27.8530   57.1970   17.6920 O.3   363  SER363     -0.2182
    175  N         30.8540   56.0230   19.3460 N.am  364  ALA364     -0.1965
    176  CA        31.2750   55.5590   20.6570 C.3   364  ALA364      0.1728
    177  C         30.1770   54.9770   21.5530 C.2   364  ALA364      0.2616
    178  O         29.0340   55.4620   21.5710 O.2   364  ALA364     -0.2715
    179  CB        31.9940   56.6950   21.3900 C.3   364  ALA364      0.0334
    180  N         30.5470   53.9240   22.2840 N.am  365  VAL365     -0.1963
    181  CA        29.6630   53.2740   23.2490 C.3   365  VAL365      0.1727
    182  C         29.7750   54.1530   24.4960 C.2   365  VAL365      0.2616
    183  O         30.8730   54.3330   25.0410 O.2   365  VAL365     -0.2715
    184  CB        30.1630   51.8640   23.6230 C.3   365  VAL365      0.0290
    185  CG1       29.3550   51.3350   24.8010 C.3   365  VAL365      0.0023
    186  CG2       30.0760   50.9150   22.4140 C.3   365  VAL365      0.0023
    187  N         28.6500   54.6920   24.9450 N.am  366  THR366     -0.1951
    188  CA        28.6270   55.5820   26.0930 C.3   366  THR366      0.1897
    189  C         28.3830   54.9120   27.4310 C.2   366  THR366      0.2313
    190  O         28.7450   55.4470   28.4750 O.2   366  THR366     -0.2863
    191  CB        27.5590   56.6420   25.9110 C.3   366  THR366      0.1794
    192  OG1       26.3000   56.0070   25.6560 O.3   366  THR366     -0.2208
    193  CG2       27.9080   57.5400   24.7360 C.3   366  THR366      0.0378
    194  N         26.1000   57.0830   21.0410 N.3   380  ASP380     -0.1239
    195  CA        25.7560   58.3870   20.5260 C.3   380  ASP380      0.1674
    196  C         24.9980   58.1970   19.2140 C.2   380  ASP380      0.2266
    197  O         24.5560   59.1660   18.6050 O.2   380  ASP380     -0.2867
    198  CB        27.0140   59.2200   20.2990 C.3   380  ASP380      0.1410
    199  CG        26.6940   60.6400   19.8560 C.2   380  ASP380      0.3668
    200  OD1       25.7990   61.2640   20.4790 O.co2 380  ASP380     -0.2456
    201  OD2       27.3340   61.1360   18.8940 O.co2 380  ASP380     -0.2456
    202  N         21.2410   61.3820   21.4420 N.3   409  VAL409     -0.1245
    203  CA        22.2230   60.4960   22.0430 C.3   409  VAL409      0.1561
    204  C         21.7230   59.8510   23.3270 C.2   409  VAL409      0.2260
    205  O         20.8870   60.4140   24.0220 O.2   409  VAL409     -0.2867
    206  CB        23.5340   61.2760   22.3390 C.3   409  VAL409      0.0252
    207  CG1       23.2230   62.5440   23.0940 C.3   409  VAL409      0.0019
    208  CG2       24.4840   60.4230   23.1550 C.3   409  VAL409      0.0019
    209  N         23.1440   58.8460   26.7120 N.3   411  TRP411     -0.1227
    210  CA        24.3230   59.0190   27.5390 C.3   411  TRP411      0.1737
    211  C         24.5840   57.8890   28.5100 C.2   411  TRP411      0.2595
    212  O         25.7080   57.4230   28.6370 O.2   411  TRP411     -0.2718
    213  CB        24.2290   60.3270   28.3320 C.3   411  TRP411      0.0564
    214  CG        24.3190   61.5830   27.4950 C.ar  411  TRP411      0.0003
    215  CD1       25.3330   61.9360   26.6400 C.ar  411  TRP411      0.0946
    216  CD2       23.3900   62.6820   27.4910 C.ar  411  TRP411      0.0152
    217  NE1       25.0890   63.1870   26.1120 N.ar  411  TRP411     -0.2442
    218  CE2       23.9070   63.6640   26.6170 C.ar  411  TRP411      0.0810
    219  CE3       22.1740   62.9300   28.1450 C.ar  411  TRP411      0.0012
    220  CZ2       23.2500   64.8750   26.3800 C.ar  411  TRP411      0.0191
    221  CZ3       21.5170   64.1440   27.9090 C.ar  411  TRP411      0.0001
    222  CH2       22.0600   65.0980   27.0340 C.ar  411  TRP411      0.0015
    223  N         23.5450   57.4530   29.2080 N.am  412  ARG412     -0.1980
    224  CA        23.7150   56.4050   30.2090 C.3   412  ARG412      0.1597
    225  C         22.5190   55.5020   30.3640 C.2   412  ARG412      0.2287
    226  O         21.3940   55.8830   30.0450 O.2   412  ARG412     -0.2864
    227  CB        23.9960   57.0390   31.5690 C.3   412  ARG412      0.0334
    228  CG        25.1810   57.9460   31.5630 C.3   412  ARG412      0.0492
    229  CD        25.4050   58.5910   32.9010 C.3   412  ARG412      0.2205
    230  NE        26.7560   59.1230   32.9330 N.pl3 412  ARG412     -0.0865
    231  CZ        27.8410   58.3840   33.1350 C.cat 412  ARG412      0.5346
    232  NH1       27.7320   57.0800   33.3400 N.pl3 412  ARG412      0.1354
    233  NH2       29.0390   58.9480   33.1040 N.pl3 412  ARG412      0.1354
    234  N         23.2730   67.7020   22.1390 N.3   427  ARG427     -0.1245
    235  CA        24.0170   68.9490   22.2590 C.3   427  ARG427      0.1563
    236  C         23.3350   70.0470   21.4540 C.2   427  ARG427      0.2260
    237  O         23.3620   71.2060   21.8470 O.2   427  ARG427     -0.2867
    238  CB        25.4620   68.7800   21.7820 C.3   427  ARG427      0.0307
    239  CG        26.3790   68.0660   22.7650 C.3   427  ARG427      0.0489
    240  CD        27.8610   68.2920   22.4070 C.3   427  ARG427      0.2205
    241  NE        28.5270   67.1200   21.8250 N.pl3 427  ARG427     -0.0865
    242  CZ        28.3750   66.6920   20.5700 C.cat 427  ARG427      0.5346
    243  NH1       27.5720   67.3340   19.7320 N.pl3 427  ARG427      0.1354
    244  NH2       29.0320   65.6160   20.1460 N.pl3 427  ARG427      0.1354
@<TRIPOS>BOND
     1   169   170    1
     2   170   173    1
     3   170   171    1
     4   173   174    1
     5   171   172    2
     6   171   175   am
     7   197   196    2
     8   201   199   ar
     9   196   195    1
    10   167   166    2
    11   175   176    1
    12   243   242    1
    13   199   198    1
    14   199   200   ar
    15   244   242    1
    16   166   165    1
    17   198   195    1
    18   148   149    1
    19   148   145    1
    20   195   194    1
    21   242   241    2
    22   176   179    1
    23   176   177    1
    24   144   145    1
    25   145   146    1
    26   202   203    1
    27   236   237    2
    28   236   235    1
    29   177   178    2
    30   177   180   am
    31   165   168    1
    32   165   164    1
    33   238   235    1
    34   238   239    1
    35   241   240    1
    36   203   206    1
    37   203   204    1
    38   234   235    1
    39   180   181    1
    40   206   207    1
    41   206   208    1
    42   240   239    1
    43   186   184    1
    44   146   150   am
    45   146   147    2
    46   181   184    1
    47   181   182    1
    48   150   151    1
    49   204   205    2
    50   184   185    1
    51   182   187   am
    52   182   183    2
    53   151   154    1
    54   151   152    1
    55   193   191    1
    56   153   152    2
    57   187   188    1
    58   154   155    1
    59   192   191    1
    60   191   188    1
    61   188   189    1
    62   217   218   ar
    63   217   215   ar
    64   155   156    1
    65   155   157    1
    66   220   218   ar
    67   220   222   ar
    68   218   216   ar
    69   215   214   ar
    70   209   210    1
    71   222   221   ar
    72   163   162    1
    73   189   190    2
    74   216   214   ar
    75   216   219   ar
    76   214   213    1
    77   210   213    1
    78   210   211    1
    79   158   159    1
    80   221   219   ar
    81   162   159    1
    82     7     5    1
    83   211   212    2
    84   211   223   am
    85   143   142    1
    86   159   160    1
    87   142   141   ar
    88   142   140   ar
    89   223   224    1
    90   130   129    1
    91   141   139   ar
    92   129   131    1
    93   129   128    2
    94     6     5    1
    95     5     2    1
    96   140   138   ar
    97   127   128    1
    98   127   126    1
    99   121   122    1
   100   160   161    2
   101   139   137   ar
   102     2     1    1
   103     2     3    1
   104   226   225    2
   105   124   123    2
   106   126   125    1
   107   224   225    1
   108   224   227    1
   109   138   137   ar
   110   125   122    1
   111   137   136    1
   112   122   123    1
   113    29    28   ar
   114   136   133    1
   115     8     3   am
   116     8     9    1
   117     3     4    2
   118   228   227    1
   119   228   229    1
   120    11    10    2
   121   120   119    1
   122    15    13    1
   123    44    43   ar
   124    44    42   ar
   125    13    12    1
   126    30    28   ar
   127    28    27    1
   128    12     9    1
   129    12    14    1
   130   132   133    1
   131   119   117   ar
   132   119   118   ar
   133     9    10    1
   134   133   134    1
   135    10    16   am
   136   117   115   ar
   137    43    41   ar
   138   108   106    1
   139   118   116   ar
   140    42    40   ar
   141   229   230    1
   142   230   231    2
   143   115   114   ar
   144   116   114   ar
   145   233   231    1
   146   231   232    1
   147   112   111    2
   148   114   113    1
   149   134   135    2
   150    97    95    1
   151   105   106    2
   152   105   104    1
   153    27    24    1
   154    86    84    1
   155   106   107    1
   156    16    17    1
   157   113   110    1
   158    22    20    1
   159    17    18    1
   160    17    20    1
   161    41    38   ar
   162   111   110    1
   163   110   109    1
   164    40    38   ar
   165    40    39   ar
   166   104   103    1
   167    95    96    1
   168    95    94    2
   169   103   102    1
   170    19    18    2
   171    26    25    2
   172    20    21    1
   173    23    24    1
   174    24    25    1
   175    38    36   ar
   176    84    83    2
   177    84    85    1
   178    83    82    1
   179    39    37   ar
   180    94    93    1
   181   102    99    1
   182    36    37   ar
   183    36    35    1
   184    82    81    1
   185    93    92    1
   186    99   100    1
   187    99    98    1
   188    81    80    1
   189    35    32    1
   190   101   100    2
   191    92    91    1
   192    34    33    2
   193    51    49    1
   194    32    33    1
   195    32    31    1
   196    49    50    1
   197    49    46    1
   198    91    88    1
   199    74    73    1
   200    80    77    1
   201    75    73    1
   202    79    78    2
   203    73    70    1
   204    77    78    1
   205    77    76    1
   206    88    89    1
   207    88    87    1
   208    90    89    2
   209    46    45    1
   210    46    47    1
   211    68    67    1
   212    70    69    1
   213    70    71    1
   214    69    65   am
   215    72    71    2
   216    47    48    2
   217    67    64    1
   218    65    64    1
   219    65    66    2
   220    62    60    1
   221    64    63    1
   222    59    60    2
   223    59    58    1
   224    60    61    1
   225    52    53    1
   226    57    58    1
   227    57    56    1
   228    53    56    1
   229    53    54    1
   230    54    55    2
