@<TRIPOS>MOLECULE
tmp/2ovrB00.pdb
 200 187 0 0 0
SMALL
GASTEIGER

@<TRIPOS>ATOM
      1  N         22.7280   68.2670   30.0810 N.3   119  VAL119     -0.1245
      2  CA        23.1830   66.8880   30.0740 C.3   119  VAL119      0.1561
      3  C         22.9360   66.1350   31.3910 C.2   119  VAL119      0.2260
      4  O         23.0720   66.6980   32.4850 O.2   119  VAL119     -0.2867
      5  CB        24.7010   66.8120   29.8280 C.3   119  VAL119      0.0252
      6  CG1       25.1380   65.3780   29.7610 C.3   119  VAL119      0.0019
      7  CG2       25.0680   67.5440   28.5520 C.3   119  VAL119      0.0019
      8  N         24.5680   63.8250   33.4890 N.3   121  THR121     -0.1218
      9  CA        25.9270   63.3440   33.7020 C.3   121  THR121      0.1862
     10  C         26.1320   62.0880   34.5450 C.2   121  THR121      0.2287
     11  O         27.2100   61.5000   34.5070 O.2   121  THR121     -0.2866
     12  CB        26.7470   64.3980   34.4010 C.3   121  THR121      0.1770
     13  OG1       26.1620   64.6290   35.6920 O.3   121  THR121     -0.2211
     14  CG2       26.7830   65.6980   33.5910 C.3   121  THR121      0.0375
     15  N         28.6290   66.1920   38.4450 N.3   161  TRP161     -0.1241
     16  CA        29.2800   65.2700   37.5490 C.3   161  TRP161      0.1605
     17  C         29.4060   63.8570   38.0920 C.2   161  TRP161      0.2264
     18  O         29.9500   62.9700   37.4270 O.2   161  TRP161     -0.2867
     19  CB        30.6360   65.8280   37.1210 C.3   161  TRP161      0.0550
     20  CG        30.4280   66.9520   36.1630 C.ar  161  TRP161      0.0003
     21  CD1       30.2270   68.2680   36.4730 C.ar  161  TRP161      0.0946
     22  CD2       30.2120   66.8330   34.7510 C.ar  161  TRP161      0.0152
     23  NE1       29.8900   68.9700   35.3440 N.ar  161  TRP161     -0.2442
     24  CE2       29.8710   68.1180   34.2710 C.ar  161  TRP161      0.0810
     25  CE3       30.2670   65.7660   33.8420 C.ar  161  TRP161      0.0012
     26  CZ2       29.5860   68.3660   32.9150 C.ar  161  TRP161      0.0191
     27  CZ3       29.9860   66.0100   32.4940 C.ar  161  TRP161      0.0001
     28  CH2       29.6480   67.2990   32.0460 C.ar  161  TRP161      0.0015
     29  N         31.0320   70.6590   40.3100 N.3   175  THR175     -0.1218
     30  CA        32.1610   71.4860   39.8810 C.3   175  THR175      0.1862
     31  C         32.4010   72.5610   40.9370 C.2   175  THR175      0.2287
     32  O         33.4840   73.1590   40.9990 O.2   175  THR175     -0.2866
     33  CB        31.9440   72.1260   38.4730 C.3   175  THR175      0.1770
     34  OG1       30.5560   72.4230   38.2820 O.3   175  THR175     -0.2211
     35  CG2       32.4250   71.1800   37.3780 C.3   175  THR175      0.0375
     36  N         36.9970   70.2860   40.7340 N.3   199  THR199     -0.1218
     37  CA        35.8540   69.4180   40.4460 C.3   199  THR199      0.1862
     38  C         35.8170   68.0100   41.0260 C.2   199  THR199      0.2287
     39  O         36.7940   67.2550   40.9200 O.2   199  THR199     -0.2866
     40  CB        35.5890   69.3270   38.8980 C.3   199  THR199      0.1770
     41  OG1       35.0220   70.5620   38.4510 O.3   199  THR199     -0.2211
     42  CG2       34.5790   68.2100   38.5600 C.3   199  THR199      0.0375
     43  N         34.9430   64.8590   40.4090 N.3   201  ARG201     -0.1245
     44  CA        34.7410   64.0830   39.2030 C.3   201  ARG201      0.1563
     45  C         34.1910   62.6690   39.3260 C.2   201  ARG201      0.2260
     46  O         33.3850   62.2580   38.4980 O.2   201  ARG201     -0.2867
     47  CB        36.0570   64.0480   38.4210 C.3   201  ARG201      0.0307
     48  CG        35.8780   63.5960   36.9970 C.3   201  ARG201      0.0489
     49  CD        34.9330   64.5340   36.2300 C.3   201  ARG201      0.2205
     50  NE        34.6480   63.9940   34.9080 N.pl3 201  ARG201     -0.0865
     51  CZ        33.7100   63.0800   34.6710 C.cat 201  ARG201      0.5346
     52  NH1       32.9700   62.6270   35.6850 N.pl3 201  ARG201      0.1354
     53  NH2       33.5210   62.6060   33.4350 N.pl3 201  ARG201      0.1354
     54  N         39.5760   66.8030   40.3520 N.3   215  ARG215     -0.1245
     55  CA        40.5460   67.3310   39.4020 C.3   215  ARG215      0.1563
     56  C         41.7610   67.8880   40.1350 C.2   215  ARG215      0.2260
     57  O         42.8010   68.1010   39.5230 O.2   215  ARG215     -0.2867
     58  CB        39.9190   68.4060   38.5370 C.3   215  ARG215      0.0307
     59  CG        39.2930   67.8160   37.3280 C.3   215  ARG215      0.0489
     60  CD        38.5040   68.8050   36.5510 C.3   215  ARG215      0.2205
     61  NE        38.0140   68.1580   35.3470 N.pl3 215  ARG215     -0.0865
     62  CZ        37.0580   68.6510   34.5750 C.cat 215  ARG215      0.5346
     63  NH1       36.4770   69.8080   34.8770 N.pl3 215  ARG215      0.1354
     64  NH2       36.6860   67.9810   33.5000 N.pl3 215  ARG215      0.1354
     65  N         40.3240   60.5340   37.7380 N.3   241  ARG241     -0.1245
     66  CA        39.1460   60.3630   36.9170 C.3   241  ARG241      0.1563
     67  C         38.2050   59.2590   37.3640 C.2   241  ARG241      0.2260
     68  O         36.9940   59.3750   37.2010 O.2   241  ARG241     -0.2867
     69  CB        39.5950   60.1170   35.4740 C.3   241  ARG241      0.0307
     70  CG        38.4710   59.8840   34.5040 C.3   241  ARG241      0.0489
     71  CD        37.7290   61.1280   34.2580 C.3   241  ARG241      0.2205
     72  NE        36.7010   60.9260   33.2490 N.pl3 241  ARG241     -0.0865
     73  CZ        35.4970   60.4020   33.4640 C.cat 241  ARG241      0.5346
     74  NH1       35.1510   60.0090   34.6830 N.pl3 241  ARG241      0.1354
     75  NH2       34.6370   60.2820   32.4550 N.pl3 241  ARG241      0.1354
     76  N         44.8040   61.0290   35.4850 N.3   255  TYR255     -0.1241
     77  CA        45.3280   61.4890   34.2130 C.3   255  TYR255      0.1605
     78  C         46.8460   61.4720   34.1750 C.2   255  TYR255      0.2264
     79  O         47.4340   61.9790   33.2280 O.2   255  TYR255     -0.2867
     80  CB        44.8170   62.8780   33.8680 C.3   255  TYR255      0.0534
     81  CG        43.4070   62.8600   33.3280 C.ar  255  TYR255     -0.0201
     82  CD1       42.7590   61.6480   33.0730 C.ar  255  TYR255     -0.0009
     83  CD2       42.7110   64.0430   33.0840 C.ar  255  TYR255     -0.0009
     84  CE1       41.4620   61.6110   32.6040 C.ar  255  TYR255      0.0417
     85  CE2       41.4050   64.0150   32.6080 C.ar  255  TYR255      0.0417
     86  CZ        40.7870   62.7890   32.3750 C.ar  255  TYR255      0.1957
     87  OH        39.4770   62.7240   31.9620 O.3   255  TYR255     -0.2866
     88  N         46.3370   58.6620   29.8910 N.3   279  ARG279     -0.1245
     89  CA        45.3280   58.8190   30.9170 C.3   279  ARG279      0.1563
     90  C         44.4950   57.5670   31.2460 C.2   279  ARG279      0.2260
     91  O         43.9970   56.8960   30.3410 O.2   279  ARG279     -0.2867
     92  CB        44.3540   59.9080   30.5110 C.3   279  ARG279      0.0307
     93  CG        44.9210   61.2560   30.1920 C.3   279  ARG279      0.0489
     94  CD        43.7570   62.1610   29.7890 C.3   279  ARG279      0.2205
     95  NE        44.1120   63.5740   29.7460 N.pl3 279  ARG279     -0.0865
     96  CZ        43.2380   64.5510   29.5120 C.cat 279  ARG279      0.5346
     97  NH1       41.9560   64.2750   29.2890 N.pl3 279  ARG279      0.1354
     98  NH2       43.6330   65.8140   29.5330 N.pl3 279  ARG279      0.1354
     99  N         41.0970   56.1660   32.4640 N.3   281  TYR281     -0.1241
    100  CA        39.7310   56.6750   32.5460 C.3   281  TYR281      0.1605
    101  C         38.7370   55.7930   33.2940 C.2   281  TYR281      0.2264
    102  O         37.7920   56.3020   33.9130 O.2   281  TYR281     -0.2867
    103  CB        39.1700   56.9070   31.1350 C.3   281  TYR281      0.0534
    104  CG        39.4070   58.2790   30.5620 C.ar  281  TYR281     -0.0201
    105  CD1       38.4460   59.2840   30.6760 C.ar  281  TYR281     -0.0009
    106  CD2       40.5870   58.5670   29.8710 C.ar  281  TYR281     -0.0009
    107  CE1       38.6610   60.5500   30.0990 C.ar  281  TYR281      0.0417
    108  CE2       40.8140   59.8170   29.2930 C.ar  281  TYR281      0.0417
    109  CZ        39.8560   60.8000   29.4040 C.ar  281  TYR281      0.1957
    110  OH        40.0950   62.0210   28.8030 O.3   281  TYR281     -0.2866
    111  N         43.1990   55.7800   27.9310 N.3   295  LEU295     -0.1245
    112  CA        43.0320   56.5100   26.6850 C.3   295  LEU295      0.1561
    113  C         44.0980   55.9360   25.7590 C.2   295  LEU295      0.2260
    114  O         44.1450   56.2470   24.5860 O.2   295  LEU295     -0.2867
    115  CB        43.2660   58.0040   26.8970 C.3   295  LEU295      0.0270
    116  CG        42.7110   58.9420   25.8140 C.3   295  LEU295      0.0019
    117  CD1       43.0130   60.3980   26.1910 C.3   295  LEU295      0.0001
    118  CD2       43.3080   58.6180   24.4740 C.3   295  LEU295      0.0001
    119  N         39.3550   55.1030   23.2380 N.3   319  LEU319     -0.1245
    120  CA        39.1130   55.2040   24.6720 C.3   319  LEU319      0.1561
    121  C         38.0330   54.2540   25.2430 C.2   319  LEU319      0.2260
    122  O         36.8830   54.2830   24.8140 O.2   319  LEU319     -0.2867
    123  CB        38.7330   56.6480   24.9910 C.3   319  LEU319      0.0270
    124  CG        38.8660   57.2330   26.3950 C.3   319  LEU319      0.0019
    125  CD1       37.5510   57.9140   26.7700 C.3   319  LEU319      0.0001
    126  CD2       39.2530   56.1680   27.3890 C.3   319  LEU319      0.0001
    127  N         35.4610   53.7380   27.6360 N.3   321  SER321     -0.1217
    128  CA        34.6890   54.6010   28.5210 C.3   321  SER321      0.1889
    129  C         34.2220   53.9080   29.8070 C.2   321  SER321      0.2288
    130  O         34.5150   54.3620   30.9250 O.2   321  SER321     -0.2866
    131  CB        33.4780   55.1830   27.7640 C.3   321  SER321      0.2089
    132  OG        32.7380   54.1870   27.0620 O.3   321  SER321     -0.2183
    133  N         35.1110   53.8160   22.7150 N.3   335  ALA335     -0.1245
    134  CA        34.8090   54.8850   21.7750 C.3   335  ALA335      0.1562
    135  C         34.9640   54.3660   20.3340 C.2   335  ALA335      0.2260
    136  O         34.4600   54.9830   19.4000 O.2   335  ALA335     -0.2867
    137  CB        35.7330   56.0910   22.0240 C.3   335  ALA335      0.0290
    138  N         30.8170   55.7440   19.1770 N.3   362  ALA362     -0.1231
    139  CA        31.2630   55.4340   20.5280 C.3   362  ALA362      0.1694
    140  C         30.1730   54.8500   21.4260 C.2   362  ALA362      0.2592
    141  O         29.0060   55.3110   21.4170 O.2   362  ALA362     -0.2718
    142  CB        31.8250   56.6890   21.1740 C.3   362  ALA362      0.0304
    143  N         30.5650   53.8360   22.1940 N.am  363  VAL363     -0.1966
    144  CA        29.6740   53.1970   23.1520 C.3   363  VAL363      0.1727
    145  C         29.8320   54.0390   24.4190 C.2   363  VAL363      0.2616
    146  O         30.9540   54.2610   24.8960 O.2   363  VAL363     -0.2715
    147  CB        30.1110   51.7620   23.4350 C.3   363  VAL363      0.0290
    148  CG1       29.3880   51.2310   24.6440 C.3   363  VAL363      0.0023
    149  CG2       29.8350   50.8990   22.2260 C.3   363  VAL363      0.0023
    150  N         28.7130   54.5050   24.9570 N.am  364  THR364     -0.1951
    151  CA        28.7170   55.3720   26.1240 C.3   364  THR364      0.1897
    152  C         28.4950   54.7040   27.4620 C.2   364  THR364      0.2313
    153  O         28.8540   55.2590   28.5060 O.2   364  THR364     -0.2863
    154  CB        27.6420   56.4330   25.9810 C.3   364  THR364      0.1794
    155  OG1       26.3720   55.7950   25.7550 O.3   364  THR364     -0.2208
    156  CG2       27.9620   57.3430   24.7940 C.3   364  THR364      0.0378
    157  N         26.2100   57.0250   21.0830 N.3   378  ASP378     -0.1239
    158  CA        25.8780   58.3140   20.5080 C.3   378  ASP378      0.1674
    159  C         25.0590   58.0850   19.2420 C.2   378  ASP378      0.2266
    160  O         24.5080   59.0350   18.6940 O.2   378  ASP378     -0.2867
    161  CB        27.1370   59.1100   20.1410 C.3   378  ASP378      0.1410
    162  CG        27.8780   59.6340   21.3630 C.2   378  ASP378      0.3668
    163  OD1       27.2250   60.1540   22.3010 O.co2 378  ASP378     -0.2456
    164  OD2       29.1270   59.5360   21.3860 O.co2 378  ASP378     -0.2456
    165  N         23.1840   58.9060   26.7320 N.3   409  TRP409     -0.1227
    166  CA        24.3740   59.0950   27.5660 C.3   409  TRP409      0.1737
    167  C         24.7090   57.9310   28.4850 C.2   409  TRP409      0.2595
    168  O         25.8660   57.5670   28.6360 O.2   409  TRP409     -0.2718
    169  CB        24.2390   60.3590   28.4130 C.3   409  TRP409      0.0564
    170  CG        24.2180   61.6430   27.6130 C.ar  409  TRP409      0.0003
    171  CD1       25.1950   62.1130   26.7590 C.ar  409  TRP409      0.0946
    172  CD2       23.2010   62.6610   27.6550 C.ar  409  TRP409      0.0152
    173  NE1       24.8420   63.3620   26.2820 N.ar  409  TRP409     -0.2442
    174  CE2       23.6280   63.7180   26.8130 C.ar  409  TRP409      0.0810
    175  CE3       21.9760   62.7800   28.3240 C.ar  409  TRP409      0.0012
    176  CZ2       22.8690   64.8770   26.6270 C.ar  409  TRP409      0.0191
    177  CZ3       21.2150   63.9450   28.1380 C.ar  409  TRP409      0.0001
    178  CH2       21.6680   64.9760   27.2950 C.ar  409  TRP409      0.0015
    179  N         23.7020   57.3360   29.1000 N.am  410  ARG410     -0.1980
    180  CA        23.9710   56.2410   30.0120 C.3   410  ARG410      0.1597
    181  C         22.6940   55.4540   30.3020 C.2   410  ARG410      0.2287
    182  O         21.5790   55.9400   30.0600 O.2   410  ARG410     -0.2864
    183  CB        24.5640   56.8060   31.3020 C.3   410  ARG410      0.0334
    184  CG        23.8340   58.0390   31.7460 C.3   410  ARG410      0.0492
    185  CD        24.5710   58.8240   32.8200 C.3   410  ARG410      0.2205
    186  NE        25.9380   59.1540   32.4490 N.pl3 410  ARG410     -0.0865
    187  CZ        26.9940   58.4550   32.8440 C.cat 410  ARG410      0.5346
    188  NH1       26.8320   57.3810   33.6200 N.pl3 410  ARG410      0.1354
    189  NH2       28.2140   58.8420   32.4900 N.pl3 410  ARG410      0.1354
    190  N         23.1700   67.6860   22.0330 N.3   425  ARG425     -0.1245
    191  CA        23.8690   68.9620   22.1940 C.3   425  ARG425      0.1563
    192  C         23.1680   70.0230   21.3390 C.2   425  ARG425      0.2260
    193  O         23.2850   71.2020   21.6060 O.2   425  ARG425     -0.2867
    194  CB        25.3190   68.8960   21.6860 C.3   425  ARG425      0.0307
    195  CG        26.3640   68.1990   22.5510 C.3   425  ARG425      0.0489
    196  CD        27.7440   68.1120   21.8130 C.3   425  ARG425      0.2205
    197  NE        27.8790   66.9260   20.9450 N.pl3 425  ARG425     -0.0865
    198  CZ        28.3800   66.9300   19.7030 C.cat 425  ARG425      0.5346
    199  NH1       28.8050   68.0620   19.1470 N.pl3 425  ARG425      0.1354
    200  NH2       28.4600   65.7980   19.0100 N.pl3 425  ARG425      0.1354
@<TRIPOS>BOND
     1   160   159    2
     2   200   198    1
     3   199   198    1
     4   138   139    1
     5   159   158    1
     6   136   135    2
     7   198   197    2
     8   161   158    1
     9   161   162    1
    10   135   134    1
    11   158   157    1
    12   139   142    1
    13   139   140    1
    14   197   196    1
    15   192   193    2
    16   192   191    1
    17   162   164   ar
    18   162   163   ar
    19   141   140    2
    20   140   143   am
    21   194   191    1
    22   194   195    1
    23   134   137    1
    24   134   133    1
    25   196   195    1
    26   190   191    1
    27   143   144    1
    28   149   147    1
    29   144   147    1
    30   144   145    1
    31   119   120    1
    32   147   148    1
    33   145   146    2
    34   145   150   am
    35   118   116    1
    36   114   113    2
    37   120   123    1
    38   120   121    1
    39   156   154    1
    40   122   121    2
    41   150   151    1
    42   123   124    1
    43   155   154    1
    44   113   112    1
    45   116   117    1
    46   116   115    1
    47   154   151    1
    48   151   152    1
    49   173   171   ar
    50   173   174   ar
    51   124   125    1
    52   124   126    1
    53   176   174   ar
    54   176   178   ar
    55   112   115    1
    56   112   111    1
    57   165   166    1
    58   171   170   ar
    59   174   172   ar
    60   132   131    1
    61   178   177   ar
    62   152   153    2
    63   166   169    1
    64   166   167    1
    65   170   172   ar
    66   170   169    1
    67   127   128    1
    68   172   175   ar
    69   131   128    1
    70   177   175   ar
    71   167   168    2
    72   167   179   am
    73   128   129    1
    74     7     5    1
    75   110   109    1
    76   179   180    1
    77    97    96    1
    78   108   109   ar
    79   108   106   ar
    80   109   107   ar
    81    96    98    1
    82    96    95    2
    83    95    94    1
    84     6     5    1
    85    94    93    1
    86   129   130    2
    87     5     2    1
    88   106   104   ar
    89    88    89    1
    90   180   181    1
    91   180   183    1
    92   182   181    2
    93     2     1    1
    94     2     3    1
    95   107   105   ar
    96    93    92    1
    97    91    90    2
    98    92    89    1
    99   104   105   ar
   100   104   103    1
   101    89    90    1
   102   103   100    1
   103   183   184    1
   104     3     4    2
   105   184   185    1
   106    87    86    1
   107    28    27   ar
   108    28    26   ar
   109    86    84   ar
   110    86    85   ar
   111   186   185    1
   112   186   187    2
   113    75    73    1
   114    99   100    1
   115   189   187    1
   116    27    25   ar
   117   100   101    1
   118    84    82   ar
   119    85    83   ar
   120   187   188    1
   121    26    24   ar
   122    82    81   ar
   123    83    81   ar
   124    79    78    2
   125    72    73    2
   126    72    71    1
   127   101   102    2
   128    81    80    1
   129    53    51    1
   130    73    74    1
   131     8     9    1
   132    64    62    1
   133    14    12    1
   134     9    12    1
   135     9    10    1
   136    25    22   ar
   137    80    77    1
   138    78    77    1
   139    77    76    1
   140    71    70    1
   141    24    22   ar
   142    24    23   ar
   143    12    13    1
   144    70    69    1
   145    11    10    2
   146    62    63    1
   147    62    61    2
   148    51    50    2
   149    51    52    1
   150    22    20   ar
   151    50    49    1
   152    23    21   ar
   153    61    60    1
   154    69    66    1
   155    20    21   ar
   156    20    19    1
   157    49    48    1
   158    60    59    1
   159    66    67    1
   160    66    65    1
   161    48    47    1
   162    19    16    1
   163    68    67    2
   164    59    58    1
   165    35    33    1
   166    18    17    2
   167    16    17    1
   168    16    15    1
   169    34    33    1
   170    47    44    1
   171    41    40    1
   172    33    30    1
   173    46    45    2
   174    58    55    1
   175    42    40    1
   176    40    37    1
   177    44    45    1
   178    44    43    1
   179    55    56    1
   180    55    54    1
   181    57    56    2
   182    30    29    1
   183    30    31    1
   184    37    36    1
   185    37    38    1
   186    39    38    2
   187    31    32    2
