@<TRIPOS>MOLECULE
tmp/2ovsB00.pdb
 168 155 0 0 0
SMALL
GASTEIGER

@<TRIPOS>ATOM
      1  N         10.7230   31.9870   45.5810 N.3    15  ILE15      -0.1245
      2  CA        10.9590   33.0520   46.5240 C.3    15  ILE15       0.1561
      3  C          9.8160   34.0690   46.4640 C.2    15  ILE15       0.2260
      4  O          9.2620   34.2980   45.3920 O.2    15  ILE15      -0.2867
      5  CB        12.3260   33.6790   46.1790 C.3    15  ILE15       0.0252
      6  CG1       12.9920   34.2010   47.4270 C.3    15  ILE15       0.0019
      7  CG2       12.1780   34.7280   45.0880 C.3    15  ILE15       0.0019
      8  CD1       14.5100   34.1480   47.3230 C.3    15  ILE15       0.0001
      9  N          8.7810   37.9800   48.3260 N.3    17  PHE17      -0.1241
     10  CA         9.3910   39.0500   49.0810 C.3    17  PHE17       0.1605
     11  C          8.5310   40.2970   49.1910 C.2    17  PHE17       0.2264
     12  O          7.6780   40.5480   48.3370 O.2    17  PHE17      -0.2867
     13  CB        10.7510   39.3920   48.4520 C.3    17  PHE17       0.0534
     14  CG        10.7260   39.5000   46.9450 C.ar   17  PHE17      -0.0203
     15  CD1       10.4360   40.7160   46.3220 C.ar   17  PHE17      -0.0042
     16  CD2       10.9930   38.3870   46.1490 C.ar   17  PHE17      -0.0042
     17  CE1       10.4080   40.8270   44.9260 C.ar   17  PHE17      -0.0003
     18  CE2       10.9660   38.4770   44.7470 C.ar   17  PHE17      -0.0003
     19  CZ        10.6720   39.7100   44.1290 C.ar   17  PHE17      -0.0000
     20  N         14.9930   31.2820   42.3290 N.3    29  LEU29      -0.1245
     21  CA        16.3620   31.5200   42.7000 C.3    29  LEU29       0.1561
     22  C         17.0920   30.1980   42.5420 C.2    29  LEU29       0.2260
     23  O         16.5910   29.1580   42.9750 O.2    29  LEU29      -0.2867
     24  CB        16.4090   31.9970   44.1520 C.3    29  LEU29       0.0270
     25  CG        17.5850   32.8130   44.6870 C.3    29  LEU29       0.0019
     26  CD1       17.3620   32.9940   46.1890 C.3    29  LEU29       0.0001
     27  CD2       18.9140   32.1020   44.4490 C.3    29  LEU29       0.0001
     28  N         12.6320   37.4460   38.4090 N.3    39  ASP39      -0.1239
     29  CA        11.1780   37.5380   38.4410 C.3    39  ASP39       0.1674
     30  C         10.7180   38.0840   37.0910 C.2    39  ASP39       0.2266
     31  O         11.5020   38.1050   36.1400 O.2    39  ASP39      -0.2867
     32  CB        10.7030   38.4290   39.5920 C.3    39  ASP39       0.1410
     33  CG        11.4810   39.7430   39.7000 C.2    39  ASP39       0.3668
     34  OD1       12.0350   40.0220   40.7700 O.co2  39  ASP39      -0.2456
     35  OD2       11.5220   40.5000   38.7390 O.co2  39  ASP39      -0.2456
     36  N         10.3340   41.0280   36.0770 N.3    41  ALA41      -0.1231
     37  CA        10.9340   42.2820   35.6410 C.3    41  ALA41       0.1694
     38  C         12.4360   42.4340   35.8880 C.2    41  ALA41       0.2592
     39  O         13.0610   43.2810   35.2540 O.2    41  ALA41      -0.2718
     40  CB        10.1970   43.4770   36.2550 C.3    41  ALA41       0.0304
     41  N         13.0110   41.6410   36.7950 N.am   42  SER42      -0.1952
     42  CA        14.4600   41.7420   37.0520 C.3    42  SER42       0.1924
     43  C         15.1180   40.3580   37.2010 C.2    42  SER42       0.2314
     44  O         14.4410   39.3420   37.4460 O.2    42  SER42      -0.2863
     45  CB        14.7150   42.5310   38.3480 C.3    42  SER42       0.2116
     46  OG        14.0160   43.7790   38.3950 O.3    42  SER42      -0.2180
     47  N         18.7890   38.3950   38.9310 N.3    44  TYR44      -0.1241
     48  CA        19.8260   38.6360   39.9260 C.3    44  TYR44       0.1605
     49  C         20.8960   37.5770   39.9030 C.2    44  TYR44       0.2264
     50  O         20.6530   36.4240   39.5600 O.2    44  TYR44      -0.2867
     51  CB        19.2300   38.7210   41.3360 C.3    44  TYR44       0.0534
     52  CG        17.7450   38.4460   41.4060 C.ar   44  TYR44      -0.0201
     53  CD1       17.2470   37.2270   41.8980 C.ar   44  TYR44      -0.0009
     54  CD2       16.8310   39.4170   40.9920 C.ar   44  TYR44      -0.0009
     55  CE1       15.8440   36.9940   41.9800 C.ar   44  TYR44       0.0417
     56  CE2       15.4490   39.1980   41.0600 C.ar   44  TYR44       0.0417
     57  CZ        14.9650   37.9960   41.5570 C.ar   44  TYR44       0.1957
     58  OH        13.6060   37.8290   41.6680 O.3    44  TYR44      -0.2866
     59  N         24.3900   41.0120   45.8810 N.3    56  LEU56      -0.1245
     60  CA        23.5130   40.4650   44.8790 C.3    56  LEU56       0.1561
     61  C         23.2300   41.5900   43.8720 C.2    56  LEU56       0.2260
     62  O         22.6980   42.6460   44.2250 O.2    56  LEU56      -0.2867
     63  CB        22.2290   39.9760   45.5550 C.3    56  LEU56       0.0270
     64  CG        21.1710   39.2220   44.7520 C.3    56  LEU56       0.0019
     65  CD1       20.6280   40.1650   43.6940 C.3    56  LEU56       0.0001
     66  CD2       21.7540   37.9300   44.1400 C.3    56  LEU56       0.0001
     67  N         21.1920   43.1930   41.1000 N.3    58  VAL58      -0.1245
     68  CA        19.8630   43.1720   40.5190 C.3    58  VAL58       0.1561
     69  C         19.8230   43.9850   39.2210 C.2    58  VAL58       0.2260
     70  O         20.1420   45.1940   39.1990 O.2    58  VAL58      -0.2867
     71  CB        18.8190   43.7360   41.5120 C.3    58  VAL58       0.0252
     72  CG1       17.4630   43.7940   40.8430 C.3    58  VAL58       0.0019
     73  CG2       18.7880   42.8600   42.7940 C.3    58  VAL58       0.0019
     74  N         17.4080   45.2170   36.1370 N.3    60  ARG60      -0.1245
     75  CA        16.0290   45.3810   35.6750 C.3    60  ARG60       0.1563
     76  C         15.9590   45.1460   34.1580 C.2    60  ARG60       0.2260
     77  O         16.6670   45.8120   33.3900 O.2    60  ARG60      -0.2867
     78  CB        15.5510   46.8020   36.0200 C.3    60  ARG60       0.0307
     79  CG        14.1360   47.1550   35.6010 C.3    60  ARG60       0.0489
     80  CD        13.0380   46.4870   36.4990 C.3    60  ARG60       0.2205
     81  NE        11.8140   47.2920   36.4720 N.pl3  60  ARG60      -0.0865
     82  CZ        11.6910   48.5060   37.0210 C.cat  60  ARG60       0.5346
     83  NH1       12.6990   49.0730   37.6660 N.pl3  60  ARG60       0.1354
     84  NH2       10.5610   49.1830   36.8910 N.pl3  60  ARG60       0.1354
     85  N          6.6140   47.6690   37.4030 N.3    66  PRO66      -0.2102
     86  CA         7.2120   48.3530   38.5540 C.3    66  PRO66       0.1504
     87  C          8.1320   47.4350   39.3590 C.2    66  PRO66       0.2576
     88  O          7.8880   46.2320   39.4570 O.2    66  PRO66      -0.2718
     89  CB         6.0070   48.7510   39.4140 C.3    66  PRO66       0.0282
     90  CG         4.7900   48.5560   38.4900 C.3    66  PRO66       0.0208
     91  CD         5.1800   47.4120   37.6170 C.3    66  PRO66       0.0893
     92  N          9.1780   48.0210   39.9190 N.am   67  SER67      -0.1938
     93  CA        10.1000   47.3190   40.7960 C.3    67  SER67       0.2055
     94  C          9.4530   47.4070   42.1850 C.2    67  SER67       0.2643
     95  O          8.7530   48.3730   42.4800 O.2    67  SER67      -0.2714
     96  CB        11.4400   48.0500   40.8290 C.3    67  SER67       0.2130
     97  OG        12.0450   47.9060   42.1040 O.3    67  SER67      -0.2179
     98  N          9.6590   46.4070   43.0340 N.am   68  VAL68      -0.1963
     99  CA         9.1160   46.4490   44.3990 C.3    68  VAL68       0.1727
    100  C          9.7730   47.6060   45.1980 C.2    68  VAL68       0.2616
    101  O          9.2670   48.0410   46.2250 O.2    68  VAL68      -0.2715
    102  CB         9.3200   45.0470   45.0990 C.3    68  VAL68       0.0290
    103  CG1       10.7850   44.8160   45.4900 C.3    68  VAL68       0.0023
    104  CG2        8.4640   44.9330   46.2830 C.3    68  VAL68       0.0023
    105  N         10.8770   48.1470   44.6950 N.am   69  LEU69      -0.1977
    106  CA        11.5460   49.2340   45.4120 C.3    69  LEU69       0.1596
    107  C         11.4150   50.5890   44.7410 C.2    69  LEU69       0.2287
    108  O         11.7950   51.6090   45.3260 O.2    69  LEU69      -0.2864
    109  CB        13.0400   48.9340   45.5990 C.3    69  LEU69       0.0297
    110  CG        13.4580   47.8200   46.5510 C.3    69  LEU69       0.0022
    111  CD1       14.9640   47.5920   46.4190 C.3    69  LEU69       0.0001
    112  CD2       13.0800   48.1740   47.9870 C.3    69  LEU69       0.0001
    113  N         20.5480   47.9460   40.7090 N.3    75  TYR75      -0.1241
    114  CA        21.0340   48.2300   42.0460 C.3    75  TYR75       0.1605
    115  C         21.6370   46.9860   42.6630 C.2    75  TYR75       0.2264
    116  O         21.6460   45.9190   42.0460 O.2    75  TYR75      -0.2867
    117  CB        19.9210   48.7830   42.9340 C.3    75  TYR75       0.0534
    118  CG        18.7770   47.8360   43.1430 C.ar   75  TYR75      -0.0201
    119  CD1       17.7410   47.7440   42.2110 C.ar   75  TYR75      -0.0009
    120  CD2       18.7210   47.0360   44.2880 C.ar   75  TYR75      -0.0009
    121  CE1       16.6580   46.8760   42.4270 C.ar   75  TYR75       0.0417
    122  CE2       17.6700   46.1730   44.5040 C.ar   75  TYR75       0.0417
    123  CZ        16.6380   46.1040   43.5720 C.ar   75  TYR75       0.1957
    124  OH        15.5780   45.2850   43.8340 O.3    75  TYR75      -0.2866
    125  N         21.9180   44.4590   46.2180 N.3    77  LEU77      -0.1245
    126  CA        21.3450   44.1030   47.5100 C.3    77  LEU77       0.1561
    127  C         22.4470   43.4470   48.3360 C.2    77  LEU77       0.2260
    128  O         23.2780   42.7280   47.7990 O.2    77  LEU77      -0.2867
    129  CB        20.1720   43.1120   47.3480 C.3    77  LEU77       0.0270
    130  CG        18.8090   43.6270   46.8980 C.3    77  LEU77       0.0019
    131  CD1       17.8040   42.4510   46.8090 C.3    77  LEU77       0.0001
    132  CD2       18.2930   44.6770   47.9020 C.3    77  LEU77       0.0001
    133  N         23.3860   40.6560   50.8860 N.3    79  ILE79      -0.1245
    134  CA        22.7700   39.4460   51.4410 C.3    79  ILE79       0.1561
    135  C         23.4470   39.0950   52.7620 C.2    79  ILE79       0.2260
    136  O         24.6800   38.9500   52.8280 O.2    79  ILE79      -0.2867
    137  CB        22.8990   38.2470   50.4710 C.3    79  ILE79       0.0252
    138  CG1       22.3660   38.6290   49.0710 C.3    79  ILE79       0.0019
    139  CG2       22.2130   37.0150   51.0620 C.3    79  ILE79       0.0019
    140  CD1       20.9400   39.2400   49.0140 C.3    79  ILE79       0.0001
    141  N         15.1610   35.9580   55.0230 N.3    92  LEU92      -0.1245
    142  CA        16.2420   36.8890   55.1920 C.3    92  LEU92       0.1561
    143  C         15.7900   38.3000   54.9150 C.2    92  LEU92       0.2260
    144  O         14.7610   38.5430   54.2740 O.2    92  LEU92      -0.2867
    145  CB        17.4440   36.5060   54.3220 C.3    92  LEU92       0.0270
    146  CG        17.2540   36.0060   52.8920 C.3    92  LEU92       0.0019
    147  CD1       16.6180   37.0950   52.0800 C.3    92  LEU92       0.0001
    148  CD2       18.6120   35.6120   52.2910 C.3    92  LEU92       0.0001
    149  N         17.2240   41.6970   53.3340 N.3    94  CYS94      -0.1235
    150  CA        18.2670   42.2140   52.4310 C.3    94  CYS94       0.1677
    151  C         18.0560   43.7020   52.1660 C.2    94  CYS94       0.2270
    152  O         16.9910   44.0870   51.6910 O.2    94  CYS94      -0.2867
    153  CB        18.2090   41.4800   51.0680 C.3    94  CYS94       0.0956
    154  SG        18.1820   39.6490   51.1690 S.3    94  CYS94      -0.0801
    155  N         14.1810   44.3890   51.3150 N.3   104  VAL104     -0.1245
    156  CA        13.1660   43.3830   51.0380 C.3   104  VAL104      0.1561
    157  C         13.3270   42.2860   52.0730 C.2   104  VAL104      0.2260
    158  O         14.4550   41.9730   52.4890 O.2   104  VAL104     -0.2867
    159  CB        13.2790   42.7500   49.6070 C.3   104  VAL104      0.0252
    160  CG1       12.7720   43.7380   48.5590 C.3   104  VAL104      0.0019
    161  CG2       14.7160   42.3140   49.2980 C.3   104  VAL104      0.0019
    162  N         12.5940   38.4900   52.5540 N.3   106  VAL106     -0.1245
    163  CA        12.4280   37.3530   51.6760 C.3   106  VAL106      0.1561
    164  C         12.1610   36.0100   52.3510 C.2   106  VAL106      0.2260
    165  O         12.7430   35.6960   53.3800 O.2   106  VAL106     -0.2867
    166  CB        13.7340   37.2330   50.8340 C.3   106  VAL106      0.0252
    167  CG1       13.6440   36.1330   49.8060 C.3   106  VAL106      0.0019
    168  CG2       14.0660   38.5830   50.2030 C.3   106  VAL106      0.0019
@<TRIPOS>BOND
     1    77    76    2
     2    76    75    1
     3    39    38    2
     4    79    78    1
     5    79    80    1
     6    37    38    1
     7    37    36    1
     8    37    40    1
     9    75    78    1
    10    75    74    1
    11    38    41   am
    12    31    30    2
    13    81    80    1
    14    81    82    2
    15    41    42    1
    16    84    82    1
    17    82    83    1
    18    42    43    1
    19    42    45    1
    20    30    29    1
    21    43    44    2
    22    85    91    1
    23    85    86    1
    24    91    90    1
    25    45    46    1
    26    28    29    1
    27    29    32    1
    28    90    89    1
    29    86    87    1
    30    86    89    1
    31    35    33   ar
    32    47    48    1
    33    70    69    2
    34    69    68    1
    35    87    88    2
    36    87    92   am
    37    50    49    2
    38    32    33    1
    39    33    34   ar
    40    49    48    1
    41    92    93    1
    42    48    51    1
    43    68    67    1
    44    68    71    1
    45   113   114    1
    46    93    96    1
    47    93    94    1
    48    96    97    1
    49    72    71    1
    50    54    56   ar
    51    54    52   ar
    52    56    57   ar
    53    51    52    1
    54    52    53   ar
    55    71    73    1
    56    57    58    1
    57    57    55   ar
    58    53    55   ar
    59   116   115    2
    60   114   115    1
    61   114   117    1
    62    94    95    2
    63    94    98   am
    64   119   121   ar
    65   119   118   ar
    66    20    21    1
    67   121   123   ar
    68    22    21    1
    69    22    23    2
    70    21    24    1
    71   117   118    1
    72    98    99    1
    73   118   120   ar
    74   123   124    1
    75   123   122   ar
    76    65    64    1
    77    61    62    2
    78    61    60    1
    79    19    18   ar
    80    19    17   ar
    81    66    64    1
    82    24    25    1
    83   120   122   ar
    84    99   102    1
    85    99   100    1
    86    27    25    1
    87    25    26    1
    88   105   100   am
    89   105   106    1
    90   107   108    2
    91   107   106    1
    92    18    16   ar
    93    64    63    1
    94    60    63    1
    95    60    59    1
    96    17    15   ar
    97     7     5    1
    98   102   103    1
    99   102   104    1
   100   100   101    2
   101     4     3    2
   102   106   109    1
   103     1     2    1
   104   109   110    1
   105    16    14   ar
   106     5     2    1
   107     5     6    1
   108   125   126    1
   109    15    14   ar
   110   111   110    1
   111     3     2    1
   112   110   112    1
   113   131   130    1
   114   130   129    1
   115   130   132    1
   116    14    13    1
   117     8     6    1
   118   129   126    1
   119   126   127    1
   120   128   127    2
   121     9    10    1
   122    12    11    2
   123    13    10    1
   124   160   159    1
   125   140   138    1
   126   138   137    1
   127    10    11    1
   128   161   159    1
   129   159   156    1
   130   167   166    1
   131   168   166    1
   132   137   139    1
   133   137   134    1
   134   166   163    1
   135   133   134    1
   136   156   155    1
   137   156   157    1
   138   153   154    1
   139   153   150    1
   140   134   135    1
   141   163   164    1
   142   163   162    1
   143   152   151    2
   144   157   158    2
   145   147   146    1
   146   151   150    1
   147   148   146    1
   148   164   165    2
   149   150   149    1
   150   135   136    2
   151   146   145    1
   152   144   143    2
   153   145   142    1
   154   143   142    1
   155   141   142    1
