@<TRIPOS>MOLECULE
tmp/2ovvA00.pdb
 183 174 0 0 0
SMALL
GASTEIGER

@<TRIPOS>ATOM
      1  N          8.0500    9.2150   51.0380 N.3    61  TYR61      -0.1227
      2  CA         9.4130    9.7410   50.9150 C.3    61  TYR61       0.1736
      3  C          9.9470   10.4590   52.1630 C.2    61  TYR61       0.2595
      4  O         11.0230   10.1220   52.6430 O.2    61  TYR61      -0.2718
      5  CB         9.5040   10.6900   49.7290 C.3    61  TYR61       0.0548
      6  CG        10.9010   11.2930   49.5100 C.ar   61  TYR61      -0.0200
      7  CD1       11.9800   10.4840   49.2740 C.ar   61  TYR61      -0.0009
      8  CD2       11.1150   12.6650   49.5730 C.ar   61  TYR61      -0.0009
      9  CE1       13.2540   10.9950   49.0990 C.ar   61  TYR61       0.0417
     10  CE2       12.4030   13.2070   49.3860 C.ar   61  TYR61       0.0417
     11  CZ        13.4580   12.3510   49.1280 C.ar   61  TYR61       0.1957
     12  OH        14.7280   12.8090   48.9020 O.3    61  TYR61      -0.2866
     13  N          9.2190   11.4600   52.6550 N.am   62  HIS62      -0.1975
     14  CA         9.6750   12.2230   53.8170 C.3    62  HIS62       0.1656
     15  C          9.4350   11.4370   55.1220 C.2    62  HIS62       0.2291
     16  O          8.6960   11.8730   56.0160 O.2    62  HIS62      -0.2864
     17  CB         9.0260   13.6110   53.8680 C.3    62  HIS62       0.0771
     18  CG         9.4830   14.5350   52.7790 C.ar   62  HIS62       0.0820
     19  ND1        8.7710   14.7110   51.6130 N.ar   62  HIS62      -0.2267
     20  CD2       10.6020   15.2900   52.6500 C.ar   62  HIS62       0.1154
     21  CE1        9.4100   15.5650   50.8290 C.ar   62  HIS62       0.1986
     22  NE2       10.5190   15.9380   51.4340 N.ar   62  HIS62      -0.2212
     23  N          3.6930   19.8330   50.9520 N.3   108  SER108     -0.1217
     24  CA         4.5010   21.0400   50.9410 C.3   108  SER108      0.1889
     25  C          3.8960   22.1990   51.7280 C.2   108  SER108      0.2288
     26  O          2.7090   22.2130   52.0980 O.2   108  SER108     -0.2866
     27  CB         4.7520   21.4760   49.5020 C.3   108  SER108      0.2089
     28  OG         3.5810   22.0440   48.9540 O.3   108  SER108     -0.2183
     29  N         13.6830   24.4270   50.9750 N.3   172  LEU172     -0.1245
     30  CA        14.3170   24.6500   49.6700 C.3   172  LEU172      0.1561
     31  C         14.0740   26.0420   49.0890 C.2   172  LEU172      0.2260
     32  O         14.8240   26.5010   48.2520 O.2   172  LEU172     -0.2867
     33  CB        13.8840   23.5930   48.6310 C.3   172  LEU172      0.0270
     34  CG        14.8190   23.5250   47.3880 C.3   172  LEU172      0.0019
     35  CD1       16.2440   23.0840   47.7720 C.3   172  LEU172      0.0001
     36  CD2       14.2700   22.6250   46.2710 C.3   172  LEU172      0.0001
     37  N         17.8030   29.1010   47.2230 N.3   176  PHE176     -0.1241
     38  CA        18.1860   29.8890   46.0330 C.3   176  PHE176      0.1605
     39  C         18.9420   31.1440   46.4570 C.2   176  PHE176      0.2264
     40  O         20.0230   31.4090   45.9380 O.2   176  PHE176     -0.2867
     41  CB        16.9650   30.1570   45.1320 C.3   176  PHE176      0.0534
     42  CG        16.2880   28.8740   44.7020 C.ar  176  PHE176     -0.0203
     43  CD1       16.7430   28.1950   43.5820 C.ar  176  PHE176     -0.0042
     44  CD2       15.2970   28.2880   45.5010 C.ar  176  PHE176     -0.0042
     45  CE1       16.1850   26.9900   43.2050 C.ar  176  PHE176     -0.0003
     46  CE2       14.7350   27.0780   45.1450 C.ar  176  PHE176     -0.0003
     47  CZ        15.2010   26.4070   43.9830 C.ar  176  PHE176     -0.0000
     48  N         19.8540   16.9970   52.1230 N.3   211  ASP211     -0.1225
     49  CA        18.4550   16.8270   51.8700 C.3   211  ASP211      0.1805
     50  C         18.1850   16.3920   50.4240 C.2   211  ASP211      0.2597
     51  O         17.2850   15.6090   50.1900 O.2   211  ASP211     -0.2718
     52  CB        17.7070   18.1190   52.1780 C.3   211  ASP211      0.1424
     53  CG        16.2110   17.8900   52.4340 C.2   211  ASP211      0.3668
     54  OD1       15.8200   16.7730   52.8130 O.co2 211  ASP211     -0.2456
     55  OD2       15.3730   18.7900   52.3000 O.co2 211  ASP211     -0.2456
     56  N         18.9770   16.8510   49.4590 N.am  212  LEU212     -0.1979
     57  CA        18.7880   16.4690   48.0820 C.3   212  LEU212      0.1596
     58  C         19.5390   15.2380   47.6600 C.2   212  LEU212      0.2287
     59  O         19.4480   14.8620   46.4880 O.2   212  LEU212     -0.2864
     60  CB        19.2090   17.6220   47.1530 C.3   212  LEU212      0.0297
     61  CG        18.3860   18.8920   47.3610 C.3   212  LEU212      0.0022
     62  CD1       18.7350   19.9030   46.3340 C.3   212  LEU212      0.0001
     63  CD2       16.9260   18.5610   47.2920 C.3   212  LEU212      0.0001
     64  N         19.5570   12.1700   47.2920 N.3   214  SER214     -0.1202
     65  CA        19.1520   11.0850   46.4160 C.3   214  SER214      0.2020
     66  C         19.7570   11.2150   45.0270 C.2   214  SER214      0.2618
     67  O         20.0100   10.2020   44.3270 O.2   214  SER214     -0.2717
     68  CB        17.6180   10.9430   46.3150 C.3   214  SER214      0.2103
     69  OG        17.0700   11.6960   45.2530 O.3   214  SER214     -0.2182
     70  N         19.9910   12.4480   44.5940 N.am  215  VAL215     -0.1979
     71  CA        20.5440   12.6500   43.2670 C.3   215  VAL215      0.1595
     72  C         22.0500   12.4110   43.2120 C.2   215  VAL215      0.2287
     73  O         22.6310   12.6160   42.1590 O.2   215  VAL215     -0.2864
     74  CB        20.1910   14.0540   42.6830 C.3   215  VAL215      0.0276
     75  CG1       18.6490   14.3100   42.7230 C.3   215  VAL215      0.0022
     76  CG2       20.9600   15.2310   43.3990 C.3   215  VAL215      0.0022
     77  N         19.0390    6.2680   42.7570 N.3   222  THR222     -0.1218
     78  CA        18.4830    7.5580   42.4060 C.3   222  THR222      0.1862
     79  C         17.1440    7.3860   41.7080 C.2   222  THR222      0.2287
     80  O         16.1540    7.9980   42.0930 O.2   222  THR222     -0.2866
     81  CB        19.4500    8.2810   41.4350 C.3   222  THR222      0.1770
     82  OG1       20.6880    8.5710   42.1040 O.3   222  THR222     -0.2211
     83  CG2       18.8730    9.6430   41.0090 C.3   222  THR222      0.0375
     84  N         13.3340    8.3240   43.1540 N.3   226  ALA226     -0.1245
     85  CA        12.4520    9.2350   42.4540 C.3   226  ALA226      0.1562
     86  C         10.9910    8.7220   42.4400 C.2   226  ALA226      0.2260
     87  O         10.0470    9.5290   42.5700 O.2   226  ALA226     -0.2867
     88  CB        12.9990    9.4860   41.0400 C.3   226  ALA226      0.0290
     89  N          9.5320    9.9980   45.6680 N.3   229  ILE229     -0.1231
     90  CA         9.4170   11.4500   45.6560 C.3   229  ILE229      0.1692
     91  C          8.1480   11.8450   44.8760 C.2   229  ILE229      0.2592
     92  O          7.3100   12.6210   45.3810 O.2   229  ILE229     -0.2718
     93  CB        10.6980   12.1320   45.0860 C.3   229  ILE229      0.0266
     94  CG1       11.9160   11.8480   45.9800 C.3   229  ILE229      0.0019
     95  CG2       10.5170   13.6250   44.9490 C.3   229  ILE229      0.0020
     96  CD1       13.2330   12.1330   45.3380 C.3   229  ILE229      0.0001
     97  N          7.9850   11.2990   43.6750 N.am  230  TYR230     -0.1976
     98  CA         6.8080   11.5820   42.8540 C.3   230  TYR230      0.1639
     99  C          5.5220   11.0120   43.4400 C.2   230  TYR230      0.2290
    100  O          4.4520   11.5940   43.2820 O.2   230  TYR230     -0.2864
    101  CB         7.0100   11.0780   41.4410 C.3   230  TYR230      0.0560
    102  CG         7.8250   12.0060   40.6450 C.ar  230  TYR230     -0.0198
    103  CD1        7.2730   13.1920   40.1520 C.ar  230  TYR230     -0.0009
    104  CD2        9.1500   11.7350   40.3800 C.ar  230  TYR230     -0.0009
    105  CE1        8.0520   14.0760   39.4220 C.ar  230  TYR230      0.0417
    106  CE2        9.9150   12.6040   39.6390 C.ar  230  TYR230      0.0417
    107  CZ         9.3640   13.7720   39.1570 C.ar  230  TYR230      0.1957
    108  OH        10.1550   14.6390   38.4230 O.3   230  TYR230     -0.2866
    109  N          4.3840   13.8640   45.6110 N.3   233  PHE233     -0.1241
    110  CA         4.0290   14.9990   44.7680 C.3   233  PHE233      0.1605
    111  C          2.6700   14.7880   44.1000 C.2   233  PHE233      0.2264
    112  O          1.8560   15.6820   44.0920 O.2   233  PHE233     -0.2867
    113  CB         5.0600   15.2260   43.6610 C.3   233  PHE233      0.0534
    114  CG         6.3740   15.8530   44.1000 C.ar  233  PHE233     -0.0203
    115  CD1        6.5050   16.5780   45.2640 C.ar  233  PHE233     -0.0042
    116  CD2        7.4780   15.7350   43.2820 C.ar  233  PHE233     -0.0042
    117  CE1        7.7270   17.1530   45.6060 C.ar  233  PHE233     -0.0003
    118  CE2        8.6510   16.3110   43.5930 C.ar  233  PHE233     -0.0003
    119  CZ         8.7960   16.9970   44.7890 C.ar  233  PHE233     -0.0000
    120  N          0.7230   22.3830   39.6900 N.3   248  ILE248     -0.1245
    121  CA         1.8350   22.4610   38.7430 C.3   248  ILE248      0.1561
    122  C          2.0960   21.0490   38.1800 C.2   248  ILE248      0.2260
    123  O          1.7670   20.0520   38.8210 O.2   248  ILE248     -0.2867
    124  CB         3.1060   23.0840   39.3830 C.3   248  ILE248      0.0252
    125  CG1        3.6930   22.1960   40.4750 C.3   248  ILE248      0.0019
    126  CG2        2.7840   24.4930   40.0010 C.3   248  ILE248      0.0019
    127  CD1        5.0220   22.7200   40.9940 C.3   248  ILE248      0.0001
    128  N          4.6840   19.0800   37.7960 N.3   250  MET250     -0.1230
    129  CA         5.4700   18.1810   38.6680 C.3   250  MET250      0.1702
    130  C          4.5650   17.3860   39.6370 C.2   250  MET250      0.2592
    131  O          4.8670   16.2640   40.0030 O.2   250  MET250     -0.2718
    132  CB         6.4860   19.0180   39.4750 C.3   250  MET250      0.0401
    133  CG         7.3590   18.2480   40.4520 C.3   250  MET250      0.0596
    134  SD         8.3730   19.3860   41.4610 S.3   250  MET250     -0.1393
    135  CE         7.2830   19.8140   42.6550 C.3   250  MET250      0.0692
    136  N          3.4660   17.9890   40.0490 N.am  251  MET251     -0.1979
    137  CA         2.5340   17.3340   40.9640 C.3   251  MET251      0.1605
    138  C          1.3310   16.6720   40.3160 C.2   251  MET251      0.2287
    139  O          0.4880   16.1140   41.0100 O.2   251  MET251     -0.2864
    140  CB         2.0570   18.3400   41.9840 C.3   251  MET251      0.0413
    141  CG         3.2060   18.9060   42.7960 C.3   251  MET251      0.0598
    142  SD         2.6060   19.7190   44.2350 S.3   251  MET251     -0.1393
    143  CE         4.0920   20.6630   44.7420 C.3   251  MET251      0.0692
    144  N         11.2850   17.1860   33.6600 N.3   262  GLY262     -0.1210
    145  CA        11.1730   17.7580   34.9960 C.3   262  GLY262      0.1956
    146  C         12.4560   17.5440   35.7760 C.2   262  GLY262      0.2611
    147  O         12.9080   18.4720   36.4530 O.2   262  GLY262     -0.2717
    148  N         13.0780   16.3710   35.6270 N.am  263  GLN263     -0.1979
    149  CA        14.3160   16.0730   36.3170 C.3   263  GLN263      0.1601
    150  C         15.4390   16.9240   35.7380 C.2   263  GLN263      0.2287
    151  O         16.2310   17.5140   36.4870 O.2   263  GLN263     -0.2864
    152  CB        14.6380   14.5600   36.2290 C.3   263  GLN263      0.0394
    153  CG        13.6750   13.7080   37.0240 C.3   263  GLN263      0.0908
    154  CD        13.9280   13.8650   38.5180 C.2   263  GLN263      0.2608
    155  OE1       15.0540   13.6650   38.9750 O.2   263  GLN263     -0.2717
    156  NE2       12.9220   14.3240   39.2500 N.am  263  GLN263     -0.0878
    157  N         15.1210   19.8480   34.4330 N.3   265  GLY265     -0.1210
    158  CA        14.9380   21.1920   34.9660 C.3   265  GLY265      0.1956
    159  C         15.5160   21.3130   36.3700 C.2   265  GLY265      0.2611
    160  O         16.2170   22.2690   36.7150 O.2   265  GLY265     -0.2717
    161  N         15.1840   20.3450   37.2030 N.am  266  PHE266     -0.1976
    162  CA        15.6250   20.3410   38.5960 C.3   266  PHE266      0.1639
    163  C         17.1190   20.1980   38.7200 C.2   266  PHE266      0.2290
    164  O         17.7510   20.8610   39.5240 O.2   266  PHE266     -0.2864
    165  CB        14.9320   19.2130   39.3540 C.3   266  PHE266      0.0560
    166  CG        15.2830   19.1690   40.8080 C.ar  266  PHE266     -0.0200
    167  CD1       14.6460   20.0240   41.6990 C.ar  266  PHE266     -0.0042
    168  CD2       16.2630   18.2920   41.2760 C.ar  266  PHE266     -0.0042
    169  CE1       14.9830   20.0030   43.0600 C.ar  266  PHE266     -0.0003
    170  CE2       16.5740   18.2410   42.6200 C.ar  266  PHE266     -0.0003
    171  CZ        15.9350   19.0990   43.5080 C.ar  266  PHE266     -0.0000
    172  N         18.6370   23.6620   37.4830 N.3   269  ALA269     -0.1231
    173  CA        18.3630   24.8720   38.2630 C.3   269  ALA269      0.1694
    174  C         18.6990   24.7470   39.7480 C.2   269  ALA269      0.2591
    175  O         18.8790   25.7590   40.4180 O.2   269  ALA269     -0.2718
    176  CB        16.8750   25.3060   38.0990 C.3   269  ALA269      0.0304
    177  N         18.8020   23.5110   40.2450 N.am  270  VAL270     -0.1980
    178  CA        18.9150   23.2710   41.6940 C.3   270  VAL270      0.1595
    179  C         20.1070   22.3730   42.0650 C.2   270  VAL270      0.2287
    180  O         21.0150   22.8270   42.7480 O.2   270  VAL270     -0.2864
    181  CB        17.6290   22.6420   42.2880 C.3   270  VAL270      0.0276
    182  CG1       17.7390   22.5490   43.7900 C.3   270  VAL270      0.0022
    183  CG2       16.3560   23.4120   41.8730 C.3   270  VAL270      0.0022
@<TRIPOS>BOND
     1   144   145    1
     2   157   158    1
     3   158   159    1
     4   145   146    1
     5   148   146   am
     6   148   149    1
     7   150   149    1
     8   150   151    2
     9   146   147    2
    10   152   149    1
    11   152   153    1
    12   159   160    2
    13   159   161   am
    14   153   154    1
    15   161   162    1
    16   172   173    1
    17   128   129    1
    18   176   173    1
    19   122   121    1
    20   122   123    2
    21   173   174    1
    22   108   107    1
    23   154   155    2
    24   154   156   am
    25   162   163    1
    26   162   165    1
    27   129   132    1
    28   129   130    1
    29   163   164    2
    30   121   124    1
    31   121   120    1
    32   107   105   ar
    33   107   106   ar
    34   165   166    1
    35   124   126    1
    36   124   125    1
    37   105   103   ar
    38   132   133    1
    39   130   131    2
    40   130   136   am
    41   106   104   ar
    42   174   177   am
    43   174   175    2
    44   136   137    1
    45   103   102   ar
    46   177   178    1
    47   138   137    1
    48   138   139    2
    49   104   102   ar
    50   133   134    1
    51   125   127    1
    52   102   101    1
    53   166   168   ar
    54   166   167   ar
    55   137   140    1
    56    83    81    1
    57    88    85    1
    58   168   170   ar
    59    81    82    1
    60    81    78    1
    61   101    98    1
    62   134   135    1
    63   178   179    1
    64   178   181    1
    65   167   169   ar
    66    79    80    2
    67    79    78    1
    68   183   181    1
    69   140   141    1
    70   179   180    2
    71    73    72    2
    72   181   182    1
    73    78    77    1
    74    86    85    1
    75    86    87    2
    76    85    84    1
    77   170   171   ar
    78    74    75    1
    79    74    71    1
    80    74    76    1
    81   141   142    1
    82    98    99    1
    83    98    97    1
    84   169   171   ar
    85    45    43   ar
    86    45    47   ar
    87    72    71    1
    88    71    70    1
    89   116   118   ar
    90   116   114   ar
    91   100    99    2
    92    43    42   ar
    93   118   119   ar
    94   113   114    1
    95   113   110    1
    96    97    91   am
    97    47    46   ar
    98   112   111    2
    99   114   115   ar
   100   111   110    1
   101   142   143    1
   102    67    66    2
   103    70    66   am
   104    42    41    1
   105    42    44   ar
   106   110   109    1
   107   119   117   ar
   108    91    92    2
   109    91    90    1
   110    95    93    1
   111    66    65    1
   112    93    90    1
   113    93    94    1
   114    41    38    1
   115    46    44   ar
   116    69    68    1
   117   115   117   ar
   118    96    94    1
   119    90    89    1
   120    40    39    2
   121    38    39    1
   122    38    37    1
   123    36    34    1
   124    68    65    1
   125    62    61    1
   126    65    64    1
   127    59    58    2
   128    60    61    1
   129    60    57    1
   130    63    61    1
   131    34    35    1
   132    34    33    1
   133    58    57    1
   134    57    56    1
   135    32    31    2
   136    33    30    1
   137    12    11    1
   138    28    27    1
   139    31    30    1
   140     9    11   ar
   141     9     7   ar
   142    11    10   ar
   143     7     6   ar
   144    10     8   ar
   145    56    50   am
   146    27    24    1
   147     6     8   ar
   148     6     5    1
   149    30    29    1
   150     5     2    1
   151    51    50    2
   152    50    49    1
   153    21    22   ar
   154    21    19   ar
   155     2     1    1
   156     2     3    1
   157    24    23    1
   158    24    25    1
   159    22    20   ar
   160    19    18   ar
   161    25    26    2
   162    49    48    1
   163    49    52    1
   164     3     4    2
   165     3    13   am
   166    52    53    1
   167    55    53   ar
   168    53    54   ar
   169    20    18   ar
   170    13    14    1
   171    18    17    1
   172    14    17    1
   173    14    15    1
   174    15    16    2
