@<TRIPOS>MOLECULE
tmp/2ovwA01.pdb
 160 153 0 0 0
SMALL
GASTEIGER

@<TRIPOS>ATOM
      1  N         58.8830   66.4940   21.0670 N.3    50  TRP50      -0.1241
      2  CA        57.8110   66.0020   21.9260 C.3    50  TRP50       0.1605
      3  C         57.6020   64.5420   21.6330 C.2    50  TRP50       0.2264
      4  O         57.6480   64.2230   20.4590 O.2    50  TRP50      -0.2867
      5  CB        56.5490   66.8140   21.6250 C.3    50  TRP50       0.0550
      6  CG        55.4150   66.4150   22.5210 C.ar   50  TRP50       0.0003
      7  CD1       55.1240   66.8830   23.7710 C.ar   50  TRP50       0.0946
      8  CD2       54.4080   65.4450   22.2310 C.ar   50  TRP50       0.0152
      9  NE1       54.0020   66.2610   24.2760 N.ar   50  TRP50      -0.2442
     10  CE2       53.5480   65.3780   23.3480 C.ar   50  TRP50       0.0810
     11  CE3       54.1510   64.6260   21.1330 C.ar   50  TRP50       0.0012
     12  CZ2       52.4420   64.5390   23.3800 C.ar   50  TRP50       0.0191
     13  CZ3       53.0640   63.7640   21.1760 C.ar   50  TRP50       0.0001
     14  CH2       52.2240   63.7360   22.2890 C.ar   50  TRP50       0.0015
     15  N         50.7110   78.5190   19.6960 N.3   103  SER103     -0.1217
     16  CA        49.9740   77.7170   20.6530 C.3   103  SER103      0.1889
     17  C         50.5900   77.6210   22.0390 C.2   103  SER103      0.2288
     18  O         51.0370   76.5860   22.5250 O.2   103  SER103     -0.2866
     19  CB        49.9690   76.3130   20.0350 C.3   103  SER103      0.2089
     20  OG        49.3170   75.3830   20.8590 O.3   103  SER103     -0.2183
     21  N         51.5500   77.6340   26.1210 N.3   105  ARG105     -0.1245
     22  CA        51.2320   76.9900   27.3730 C.3   105  ARG105      0.1563
     23  C         52.0800   77.7400   28.4150 C.2   105  ARG105      0.2260
     24  O         53.3050   77.8710   28.3100 O.2   105  ARG105     -0.2867
     25  CB        51.3790   75.4900   27.4300 C.3   105  ARG105      0.0307
     26  CG        51.2650   74.9840   28.8950 C.3   105  ARG105      0.0489
     27  CD        51.1720   73.4560   28.8080 C.3   105  ARG105      0.2205
     28  NE        52.5480   72.9950   28.7010 N.pl3 105  ARG105     -0.0865
     29  CZ        53.0470   72.1390   27.8300 C.cat 105  ARG105      0.5346
     30  NH1       52.2620   71.5750   26.9200 N.pl3 105  ARG105      0.1354
     31  NH2       54.3510   71.9060   27.9320 N.pl3 105  ARG105      0.1354
     32  N         40.9480   74.2910   21.6570 N.3   140  ASN140     -0.1240
     33  CA        40.9490   74.0070   23.0640 C.3   140  ASN140      0.1653
     34  C         41.6640   75.1460   23.8000 C.2   140  ASN140      0.2266
     35  O         42.8880   75.3470   23.6830 O.2   140  ASN140     -0.2867
     36  CB        41.6090   72.6600   23.3780 C.3   140  ASN140      0.1155
     37  CG        41.3720   72.1410   24.8030 C.2   140  ASN140      0.2627
     38  OD1       41.1730   72.8840   25.7700 O.2   140  ASN140     -0.2716
     39  ND2       41.3410   70.8220   24.9880 N.am  140  ASN140     -0.0877
     40  N         42.4770   76.1240   27.4360 N.3   142  ALA142     -0.1245
     41  CA        42.4790   75.4310   28.7060 C.3   142  ALA142      0.1562
     42  C         43.0700   76.1390   29.8890 C.2   142  ALA142      0.2260
     43  O         44.0560   76.8870   29.8410 O.2   142  ALA142     -0.2867
     44  CB        43.1430   74.0760   28.4960 C.3   142  ALA142      0.0290
     45  N         43.9010   74.8380   33.6820 N.3   144  TYR144     -0.1241
     46  CA        43.9440   73.6290   34.4890 C.3   144  TYR144      0.1605
     47  C         45.0940   73.6700   35.4930 C.2   144  TYR144      0.2264
     48  O         45.8320   74.6230   35.5810 O.2   144  TYR144     -0.2867
     49  CB        44.0830   72.4300   33.5670 C.3   144  TYR144      0.0534
     50  CG        45.3080   72.3340   32.6740 C.ar  144  TYR144     -0.0201
     51  CD1       45.4940   73.1850   31.5920 C.ar  144  TYR144     -0.0009
     52  CD2       46.2520   71.3380   32.8840 C.ar  144  TYR144     -0.0009
     53  CE1       46.5580   73.0580   30.7170 C.ar  144  TYR144      0.0417
     54  CE2       47.3350   71.1990   32.0350 C.ar  144  TYR144      0.0417
     55  CZ        47.4800   72.0650   30.9530 C.ar  144  TYR144      0.1957
     56  OH        48.5780   71.8960   30.1430 O.3   144  TYR144     -0.2866
     57  N         57.0220   70.7290   33.5750 N.3   170  TYR170     -0.1241
     58  CA        55.6790   70.3610   33.1650 C.3   170  TYR170      0.1605
     59  C         55.4540   68.8460   33.2700 C.2   170  TYR170      0.2264
     60  O         56.3700   68.0450   33.0370 O.2   170  TYR170     -0.2867
     61  CB        55.3780   70.7780   31.7170 C.3   170  TYR170      0.0534
     62  CG        53.9310   70.4670   31.3480 C.ar  170  TYR170     -0.0201
     63  CD1       52.9340   71.2850   31.8750 C.ar  170  TYR170     -0.0009
     64  CD2       53.5900   69.4210   30.4990 C.ar  170  TYR170     -0.0009
     65  CE1       51.6110   71.0330   31.5980 C.ar  170  TYR170      0.0417
     66  CE2       52.2590   69.1490   30.2240 C.ar  170  TYR170      0.0417
     67  CZ        51.2790   69.9700   30.7790 C.ar  170  TYR170      0.1957
     68  OH        49.9340   69.7870   30.5310 O.3   170  TYR170     -0.2866
     69  N         51.6270   66.0550   33.3030 N.3   172  ASP172     -0.1239
     70  CA        50.1800   66.0340   33.2780 C.3   172  ASP172      0.1674
     71  C         49.8010   64.5670   33.3320 C.2   172  ASP172      0.2266
     72  O         50.6970   63.7050   33.3930 O.2   172  ASP172     -0.2867
     73  CB        49.4410   66.8280   32.2170 C.3   172  ASP172      0.1410
     74  CG        49.7530   66.3530   30.8000 C.2   172  ASP172      0.3668
     75  OD1       49.9270   65.1530   30.5950 O.co2 172  ASP172     -0.2456
     76  OD2       49.8320   67.2080   29.9060 O.co2 172  ASP172     -0.2456
     77  N         48.6870   62.5640   31.1130 N.3   174  GLN174     -0.1245
     78  CA        48.8030   61.7020   29.9510 C.3   174  GLN174      0.1566
     79  C         50.1390   60.9850   30.0220 C.2   174  GLN174      0.2260
     80  O         50.3660   60.0870   29.2190 O.2   174  GLN174     -0.2867
     81  CB        48.7220   62.4800   28.6190 C.3   174  GLN174      0.0367
     82  CG        47.4600   63.3200   28.5480 C.3   174  GLN174      0.0905
     83  CD        46.2640   62.3880   28.7050 C.2   174  GLN174      0.2608
     84  OE1       46.2810   61.3110   28.1370 O.2   174  GLN174     -0.2717
     85  NE2       45.2460   62.7610   29.4380 N.am  174  GLN174     -0.0878
     86  N         53.1010   61.7460   28.9550 N.3   176  TYR176     -0.1241
     87  CA        53.8090   61.7700   27.6680 C.3   176  TYR176      0.1605
     88  C         55.3390   61.8090   27.8650 C.2   176  TYR176      0.2264
     89  O         55.8660   62.4010   28.8180 O.2   176  TYR176     -0.2867
     90  CB        53.4870   63.0340   26.8750 C.3   176  TYR176      0.0534
     91  CG        52.0690   63.1420   26.3670 C.ar  176  TYR176     -0.0201
     92  CD1       51.4610   62.1440   25.5930 C.ar  176  TYR176     -0.0009
     93  CD2       51.3340   64.3140   26.6360 C.ar  176  TYR176     -0.0009
     94  CE1       50.1670   62.3490   25.1200 C.ar  176  TYR176      0.0417
     95  CE2       50.0600   64.4920   26.1840 C.ar  176  TYR176      0.0417
     96  CZ        49.4860   63.5230   25.4000 C.ar  176  TYR176      0.1957
     97  OH        48.1790   63.7080   24.9550 O.3   176  TYR176     -0.2866
     98  N         46.2830   65.7100   37.7870 N.3   196  GLU196     -0.1245
     99  CA        45.8750   66.9130   37.0430 C.3   196  GLU196      0.1567
    100  C         44.3960   67.2200   37.2370 C.2   196  GLU196      0.2260
    101  O         43.5610   66.3080   37.2680 O.2   196  GLU196     -0.2867
    102  CB        46.2170   66.5860   35.5760 C.3   196  GLU196      0.0388
    103  CG        45.8300   67.6950   34.6340 C.3   196  GLU196      0.1160
    104  CD        45.8950   67.3110   33.1850 C.2   196  GLU196      0.3649
    105  OE1       46.2720   66.2180   32.7870 O.co2 196  GLU196     -0.2457
    106  OE2       45.5390   68.2330   32.4230 O.co2 196  GLU196     -0.2457
    107  N         41.5590   69.3630   35.3690 N.3   198  ASP198     -0.1239
    108  CA        41.1800   70.2650   34.2620 C.3   198  ASP198      0.1674
    109  C         39.9090   70.9900   34.6390 C.2   198  ASP198      0.2266
    110  O         38.7800   70.4610   34.6540 O.2   198  ASP198     -0.2867
    111  CB        40.9440   69.4770   33.0010 C.3   198  ASP198      0.1410
    112  CG        42.2350   68.8010   32.5980 C.2   198  ASP198      0.3668
    113  OD1       43.2190   69.5590   32.7150 O.co2 198  ASP198     -0.2456
    114  OD2       42.1900   67.6280   32.2200 O.co2 198  ASP198     -0.2456
    115  N         38.2810   73.0610   29.8660 N.3   201  GLU201     -0.1245
    116  CA        38.7830   72.6570   28.5560 C.3   201  GLU201      0.1567
    117  C         37.5940   72.9750   27.6130 C.2   201  GLU201      0.2260
    118  O         36.5520   72.3200   27.6450 O.2   201  GLU201     -0.2867
    119  CB        39.2780   71.2580   28.3840 C.3   201  GLU201      0.0388
    120  CG        40.7550   71.0810   28.7590 C.3   201  GLU201      0.1160
    121  CD        41.0890   69.6180   28.6800 C.2   201  GLU201      0.3649
    122  OE1       40.7110   68.8270   29.5640 O.co2 201  GLU201     -0.2457
    123  OE2       41.7250   69.2450   27.6650 O.co2 201  GLU201     -0.2457
    124  N         41.7980   64.3800   36.9440 N.3   212  HIS212     -0.1241
    125  CA        42.4920   63.1870   36.5280 C.3   212  HIS212      0.1621
    126  C         43.5170   62.7620   37.6010 C.2   212  HIS212      0.2264
    127  O         44.6780   63.1940   37.6220 O.2   212  HIS212     -0.2867
    128  CB        43.3150   63.3600   35.2750 C.3   212  HIS212      0.0745
    129  CG        42.6620   63.7870   34.0130 C.ar  212  HIS212      0.0817
    130  ND1       42.5440   62.9900   32.9050 N.ar  212  HIS212     -0.2268
    131  CD2       42.1730   65.0020   33.6740 C.ar  212  HIS212      0.1154
    132  CE1       41.9930   63.7440   31.9500 C.ar  212  HIS212      0.1986
    133  NE2       41.7580   64.9580   32.3660 N.ar  212  HIS212     -0.2212
    134  N         46.5050   77.3560   28.4860 N.3   344  SER344     -0.1202
    135  CA        46.9790   77.1510   27.1320 C.3   344  SER344      0.2020
    136  C         45.9230   77.2420   26.0390 C.2   344  SER344      0.2619
    137  O         44.7260   77.2470   26.2800 O.2   344  SER344     -0.2717
    138  CB        47.6110   75.7540   27.0950 C.3   344  SER344      0.2103
    139  OG        46.6490   74.7170   27.0820 O.3   344  SER344     -0.2182
    140  N         46.3880   77.2930   24.7900 N.am  345  VAL345     -0.1965
    141  CA        45.5510   77.2910   23.6100 C.3   345  VAL345      0.1727
    142  C         46.1960   76.2770   22.6320 C.2   345  VAL345      0.2616
    143  O         47.3850   76.3750   22.3210 O.2   345  VAL345     -0.2715
    144  CB        45.3700   78.4920   22.6730 C.3   345  VAL345      0.0290
    145  CG1       43.9120   78.8550   22.5780 C.3   345  VAL345      0.0023
    146  CG2       46.2350   79.6770   22.9550 C.3   345  VAL345      0.0023
    147  N         45.3740   75.4030   22.1320 N.am  346  TRP346     -0.1974
    148  CA        45.8550   74.4130   21.1870 C.3   346  TRP346      0.1640
    149  C         44.7500   73.7670   20.3320 C.2   346  TRP346      0.2290
    150  O         43.5510   73.9010   20.6120 O.2   346  TRP346     -0.2864
    151  CB        46.5430   73.3200   21.9680 C.3   346  TRP346      0.0576
    152  CG        45.8230   72.5280   22.9820 C.ar  346  TRP346      0.0006
    153  CD1       45.3850   72.9270   24.2310 C.ar  346  TRP346      0.0946
    154  CD2       45.5170   71.1300   22.8890 C.ar  346  TRP346      0.0152
    155  NE1       44.8160   71.8790   24.8950 N.ar  346  TRP346     -0.2442
    156  CE2       44.8810   70.7610   24.0870 C.ar  346  TRP346      0.0810
    157  CE3       45.7350   70.1700   21.8870 C.ar  346  TRP346      0.0012
    158  CZ2       44.4270   69.4670   24.3050 C.ar  346  TRP346      0.0191
    159  CZ3       45.2780   68.8790   22.1140 C.ar  346  TRP346      0.0001
    160  CH2       44.6280   68.5300   23.3360 C.ar  346  TRP346      0.0015
@<TRIPOS>BOND
     1    15    16    1
     2    19    16    1
     3    19    20    1
     4   149   150    2
     5   149   148    1
     6     4     3    2
     7    16    17    1
     8     1     2    1
     9    11    13   ar
    10    11     8   ar
    11    13    14   ar
    12   148   151    1
    13   148   147    1
    14     5     2    1
    15     5     6    1
    16     3     2    1
    17    32    33    1
    18   157   159   ar
    19   157   154   ar
    20   151   152    1
    21    17    18    2
    22   159   160   ar
    23   147   142   am
    24     8     6   ar
    25     8    10   ar
    26    14    12   ar
    27   143   142    2
    28     6     7   ar
    29   145   144    1
    30   142   141    1
    31   144   146    1
    32   144   141    1
    33   154   152   ar
    34   154   156   ar
    35   152   153   ar
    36    33    36    1
    37    33    34    1
    38   160   158   ar
    39    10    12   ar
    40    10     9   ar
    41    36    37    1
    42   141   140    1
    43    35    34    2
    44     7     9   ar
    45   156   158   ar
    46   156   155   ar
    47   153   155   ar
    48   140   136   am
    49    37    39   am
    50    37    38    2
    51    97    96    1
    52    94    96   ar
    53    94    92   ar
    54    96    95   ar
    55    92    91   ar
    56   136   137    2
    57   136   135    1
    58    21    22    1
    59    95    93   ar
    60    91    93   ar
    61    91    90    1
    62    90    87    1
    63    30    29    1
    64   139   138    1
    65   138   135    1
    66   135   134    1
    67    22    25    1
    68    22    23    1
    69    25    26    1
    70    40    41    1
    71   117   118    2
    72   117   116    1
    73   123   121   ar
    74    87    88    1
    75    87    86    1
    76    29    31    1
    77    29    28    2
    78    88    89    2
    79    84    83    2
    80    24    23    2
    81   119   116    1
    82   119   120    1
    83    44    41    1
    84    82    81    1
    85    82    83    1
    86   116   115    1
    87    81    78    1
    88   121   120    1
    89   121   122   ar
    90    28    27    1
    91    83    85   am
    92    41    42    1
    93    27    26    1
    94    80    79    2
    95    43    42    2
    96    76    74   ar
    97    78    79    1
    98    78    77    1
    99    56    55    1
   100    66    64   ar
   101    66    67   ar
   102    64    62   ar
   103    68    67    1
   104    75    74   ar
   105    53    55   ar
   106    53    51   ar
   107    67    65   ar
   108    74    73    1
   109    55    54   ar
   110    62    61    1
   111    62    63   ar
   112    51    50   ar
   113    65    63   ar
   114    61    58    1
   115   132   133   ar
   116   132   130   ar
   117    54    52   ar
   118    73    70    1
   119   114   112   ar
   120   133   131   ar
   121   106   104   ar
   122   112   113   ar
   123   112   111    1
   124    50    52   ar
   125    50    49    1
   126   105   104   ar
   127   130   129   ar
   128   111   108    1
   129    60    59    2
   130    58    59    1
   131    58    57    1
   132   104   103    1
   133    70    69    1
   134    70    71    1
   135    71    72    2
   136    49    46    1
   137   131   129   ar
   138    45    46    1
   139   129   128    1
   140   108   109    1
   141   108   107    1
   142    46    47    1
   143   103   102    1
   144   109   110    2
   145   128   125    1
   146    47    48    2
   147   102    99    1
   148   125   124    1
   149   125   126    1
   150    99   100    1
   151    99    98    1
   152   100   101    2
   153   126   127    2
