@<TRIPOS>MOLECULE
tmp/2ovxB00.pdb
 164 163 0 0 0
SMALL
GASTEIGER

@<TRIPOS>ATOM
      1  N         70.2500    8.1310   58.1280 N.3    77  GLY77      -0.1210
      2  CA        70.8360    8.0340   56.8030 C.3    77  GLY77       0.1956
      3  C         70.2160    9.1800   56.0240 C.2    77  GLY77       0.2612
      4  O         70.1670   10.3020   56.5300 O.2    77  GLY77      -0.2717
      5  N         69.7450    8.9200   54.8070 N.am   78  LEU78      -0.1965
      6  CA        69.0930    9.9640   54.0210 C.3    78  LEU78       0.1728
      7  C         67.7170   10.2320   54.6380 C.2    78  LEU78       0.2616
      8  O         67.0090    9.2950   55.0080 O.2    78  LEU78      -0.2715
      9  CB        68.9470    9.5200   52.5630 C.3    78  LEU78       0.0311
     10  CG        70.0650    9.9230   51.5910 C.3    78  LEU78       0.0022
     11  CD1       71.4290    9.7900   52.2490 C.3    78  LEU78       0.0001
     12  CD2       69.9790    9.0620   50.3420 C.3    78  LEU78       0.0001
     13  N         67.3460   11.5050   54.7540 N.am   79  LEU79      -0.1963
     14  CA        66.0640   11.8860   55.3520 C.3    79  LEU79       0.1728
     15  C         64.9980   12.1240   54.2920 C.2    79  LEU79       0.2616
     16  O         63.7990   12.0430   54.5640 O.2    79  LEU79      -0.2715
     17  CB        66.2230   13.1680   56.1690 C.3    79  LEU79       0.0311
     18  CG        67.3770   13.2820   57.1740 C.3    79  LEU79       0.0022
     19  CD1       67.3670   14.6720   57.7640 C.3    79  LEU79       0.0001
     20  CD2       67.2480   12.2290   58.2670 C.3    79  LEU79       0.0001
     21  N         65.4470   12.4270   53.0830 N.am   80  ALA80      -0.1963
     22  CA        64.5400   12.7130   51.9820 C.3    80  ALA80       0.1728
     23  C         65.3610   13.0070   50.7360 C.2    80  ALA80       0.2616
     24  O         66.5930   13.0360   50.7780 O.2    80  ALA80      -0.2715
     25  CB        63.6880   13.9290   52.3300 C.3    80  ALA80       0.0334
     26  N         64.6770   13.2100   49.6210 N.am   81  HIS81      -0.1959
     27  CA        65.3670   13.5520   48.3910 C.3    81  HIS81       0.1787
     28  C         64.4060   14.2520   47.4580 C.2    81  HIS81       0.2620
     29  O         63.1930   14.0360   47.5140 O.2    81  HIS81      -0.2715
     30  CB        66.0150   12.3170   47.7260 C.3    81  HIS81       0.0785
     31  CG        65.0630   11.2170   47.3680 C.ar   81  HIS81       0.0821
     32  ND1       65.3630    9.8860   47.5730 N.ar   81  HIS81      -0.2267
     33  CD2       63.8560   11.2370   46.7530 C.ar   81  HIS81       0.1154
     34  CE1       64.3840    9.1360   47.0990 C.ar   81  HIS81       0.1986
     35  NE2       63.4590    9.9310   46.5950 N.ar   81  HIS81      -0.2212
     36  N         64.9480   15.1310   46.6300 N.am   82  ALA82      -0.1977
     37  CA        64.1260   15.8760   45.6960 C.3    82  ALA82       0.1597
     38  C         64.8380   15.9160   44.3570 C.2    82  ALA82       0.2287
     39  O         66.0440   15.6570   44.2760 O.2    82  ALA82      -0.2864
     40  CB        63.8890   17.2850   46.2220 C.3    82  ALA82       0.0319
     41  N         61.9600   22.3890   58.5130 N.3   113  LEU113     -0.1231
     42  CA        63.3130   22.6870   58.0570 C.3   113  LEU113      0.1693
     43  C         63.7430   21.7670   56.9270 C.2   113  LEU113      0.2591
     44  O         64.3520   22.2140   55.9590 O.2   113  LEU113     -0.2718
     45  CB        64.3190   22.6060   59.2170 C.3   113  LEU113      0.0284
     46  CG        64.2100   23.6780   60.3080 C.3   113  LEU113      0.0019
     47  CD1       65.3230   23.4760   61.3300 C.3   113  LEU113      0.0001
     48  CD2       64.3030   25.0780   59.6910 C.3   113  LEU113      0.0001
     49  N         63.4230   20.4830   57.0410 N.am  114  VAL114     -0.1980
     50  CA        63.7950   19.5340   56.0020 C.3   114  VAL114      0.1595
     51  C         63.0730   19.8740   54.6990 C.2   114  VAL114      0.2287
     52  O         63.6920   19.9270   53.6370 O.2   114  VAL114     -0.2864
     53  CB        63.4690   18.0870   56.4390 C.3   114  VAL114      0.0276
     54  CG1       63.7270   17.1050   55.2960 C.3   114  VAL114      0.0022
     55  CG2       64.3360   17.7240   57.6420 C.3   114  VAL114      0.0022
     56  N         64.5240   22.8070   52.8820 N.3   117  HIS117     -0.1226
     57  CA        65.7540   22.4040   52.2120 C.3   117  HIS117      0.1752
     58  C         65.4170   21.6300   50.9370 C.2   117  HIS117      0.2595
     59  O         65.9480   21.9280   49.8660 O.2   117  HIS117     -0.2718
     60  CB        66.5960   21.5220   53.1440 C.3   117  HIS117      0.0759
     61  CG        67.8540   21.0040   52.5160 C.ar  117  HIS117      0.0818
     62  ND1       69.0920   21.5550   52.7620 N.ar  117  HIS117     -0.2268
     63  CD2       68.0610   19.9900   51.6420 C.ar  117  HIS117      0.1154
     64  CE1       70.0080   20.9060   52.0670 C.ar  117  HIS117      0.1986
     65  NE2       69.4090   19.9510   51.3770 N.ar  117  HIS117     -0.2212
     66  N         64.5400   20.6370   51.0510 N.am  118  GLN118     -0.1979
     67  CA        64.1640   19.8490   49.8860 C.3   118  GLN118      0.1601
     68  C         63.5860   20.7470   48.7970 C.2   118  GLN118      0.2287
     69  O         63.9160   20.5900   47.6250 O.2   118  GLN118     -0.2864
     70  CB        63.1420   18.7650   50.2570 C.3   118  GLN118      0.0394
     71  CG        63.6490   17.7460   51.2640 C.3   118  GLN118      0.0908
     72  CD        65.0240   17.2060   50.9030 C.2   118  GLN118      0.2608
     73  OE1       65.9750   17.3610   51.6650 O.2   118  GLN118     -0.2717
     74  NE2       65.1330   16.5660   49.7390 N.am  118  GLN118     -0.0878
     75  N         66.0350   22.3850   46.5950 N.3   121  HIS121     -0.1241
     76  CA        66.4880   21.5030   45.5230 C.3   121  HIS121      0.1621
     77  C         65.4700   21.4930   44.3790 C.2   121  HIS121      0.2264
     78  O         65.8290   21.6020   43.2020 O.2   121  HIS121     -0.2867
     79  CB        66.6470   20.0670   46.0340 C.3   121  HIS121      0.0745
     80  CG        67.8260   19.8600   46.9340 C.ar  121  HIS121      0.0817
     81  ND1       69.0950   20.2860   46.6070 N.ar  121  HIS121     -0.2268
     82  CD2       67.9380   19.2150   48.1200 C.ar  121  HIS121      0.1154
     83  CE1       69.9400   19.9100   47.5530 C.ar  121  HIS121      0.1986
     84  NE2       69.2640   19.2590   48.4820 N.ar  121  HIS121     -0.2212
     85  N         73.7320   22.1100   46.8450 N.3   127  HIS127     -0.1241
     86  CA        74.2620   22.2770   48.1960 C.3   127  HIS127      0.1621
     87  C         75.2310   23.4420   48.3730 C.2   127  HIS127      0.2264
     88  O         76.0690   23.7130   47.5130 O.2   127  HIS127     -0.2867
     89  CB        74.9250   20.9730   48.6450 C.3   127  HIS127      0.0745
     90  CG        73.9480   19.8830   48.9520 C.ar  127  HIS127      0.0817
     91  ND1       74.2470   18.5460   48.8020 N.ar  127  HIS127     -0.2268
     92  CD2       72.6810   19.9340   49.4280 C.ar  127  HIS127      0.1154
     93  CE1       73.2060   17.8210   49.1700 C.ar  127  HIS127      0.1986
     94  NE2       72.2430   18.6390   49.5550 N.ar  127  HIS127     -0.2212
     95  N         74.0150   27.8440   56.3390 N.3   133  ALA133     -0.1231
     96  CA        72.9980   27.9630   55.2960 C.3   133  ALA133      0.1694
     97  C         71.9990   26.8110   55.3300 C.2   133  ALA133      0.2591
     98  O         72.3290   25.7060   55.7550 O.2   133  ALA133     -0.2718
     99  CB        73.6640   28.0290   53.9250 C.3   133  ALA133      0.0304
    100  N         70.7760   27.0750   54.8800 N.am  134  LEU134     -0.1980
    101  CA        69.7450   26.0460   54.8510 C.3   134  LEU134      0.1596
    102  C         70.1140   24.9480   53.8530 C.2   134  LEU134      0.2287
    103  O         69.8270   23.7760   54.0800 O.2   134  LEU134     -0.2864
    104  CB        68.3950   26.6580   54.4670 C.3   134  LEU134      0.0297
    105  CG        67.2270   25.6850   54.2550 C.3   134  LEU134      0.0022
    106  CD1       66.9880   24.8620   55.5180 C.3   134  LEU134      0.0001
    107  CD2       65.9730   26.4720   53.8830 C.3   134  LEU134      0.0001
    108  N         72.9200   23.7450   53.2710 N.3   136  TYR136     -0.1228
    109  CA        74.1170   23.0350   53.7090 C.3   136  TYR136      0.1721
    110  C         73.6320   21.5960   53.9300 C.2   136  TYR136      0.2437
    111  O         72.6660   21.3690   54.6550 O.2   136  TYR136     -0.2733
    112  CB        74.6310   23.6380   55.0220 C.3   136  TYR136      0.0547
    113  CG        75.9940   23.1390   55.4480 C.ar  136  TYR136     -0.0200
    114  CD1       77.1340   23.4450   54.7030 C.ar  136  TYR136     -0.0009
    115  CD2       76.1430   22.3460   56.5870 C.ar  136  TYR136     -0.0009
    116  CE1       78.3890   22.9720   55.0800 C.ar  136  TYR136      0.0417
    117  CE2       77.3940   21.8670   56.9730 C.ar  136  TYR136      0.0417
    118  CZ        78.5120   22.1820   56.2150 C.ar  136  TYR136      0.1957
    119  OH        79.7500   21.7070   56.5880 O.3   136  TYR136     -0.2866
    120  N         74.2890   20.6090   53.3030 N.am  137  PRO137     -0.2718
    121  CA        73.8930   19.2010   53.4420 C.3   137  PRO137      0.1535
    122  C         74.1080   18.5360   54.8050 C.2   137  PRO137      0.2598
    123  O         74.8480   17.5600   54.9160 O.2   137  PRO137     -0.2715
    124  CB        74.6850   18.5180   52.3290 C.3   137  PRO137      0.0310
    125  CG        75.9570   19.3120   52.3090 C.3   137  PRO137      0.0237
    126  CD        75.4680   20.7420   52.4240 C.3   137  PRO137      0.0939
    127  N         73.4500   19.0560   55.8360 N.am  138  MET138     -0.1964
    128  CA        73.5730   18.4910   57.1760 C.3   138  MET138      0.1736
    129  C         72.3770   18.8960   58.0260 C.2   138  MET138      0.2616
    130  O         72.0150   20.0730   58.0790 O.2   138  MET138     -0.2715
    131  CB        74.8640   18.9750   57.8530 C.3   138  MET138      0.0427
    132  CG        75.0790   18.4070   59.2540 C.3   138  MET138      0.0599
    133  SD        76.5500   19.0540   60.0970 S.3   138  MET138     -0.1393
    134  CE        75.8440   20.4200   61.0270 C.3   138  MET138      0.0692
    135  N         71.7550   17.9300   58.6920 N.am  139  TYR139     -0.1960
    136  CA        70.6210   18.2670   59.5290 C.3   139  TYR139      0.1771
    137  C         71.0940   18.7980   60.8730 C.2   139  TYR139      0.2619
    138  O         71.8950   18.1680   61.5540 O.2   139  TYR139     -0.2715
    139  CB        69.7110   17.0690   59.7850 C.3   139  TYR139      0.0574
    140  CG        68.5030   17.4900   60.5980 C.ar  139  TYR139     -0.0198
    141  CD1       67.3950   18.0820   59.9830 C.ar  139  TYR139     -0.0009
    142  CD2       68.5090   17.3950   61.9910 C.ar  139  TYR139     -0.0009
    143  CE1       66.3280   18.5750   60.7370 C.ar  139  TYR139      0.0417
    144  CE2       67.4490   17.8890   62.7540 C.ar  139  TYR139      0.0417
    145  CZ        66.3640   18.4780   62.1200 C.ar  139  TYR139      0.1957
    146  OH        65.3250   18.9880   62.8690 O.3   139  TYR139     -0.2866
    147  N         70.5810   19.9610   61.2490 N.am  140  ARG140     -0.1977
    148  CA        70.9280   20.5870   62.5150 C.3   140  ARG140      0.1597
    149  C         69.7710   21.4930   62.8980 C.2   140  ARG140      0.2287
    150  O         69.4640   22.4480   62.1870 O.2   140  ARG140     -0.2864
    151  CB        72.2280   21.3960   62.3590 C.3   140  ARG140      0.0334
    152  CG        72.5750   22.3470   63.4980 C.3   140  ARG140      0.0492
    153  CD        71.9310   23.7110   63.2940 C.3   140  ARG140      0.2205
    154  NE        72.5370   24.7460   64.1280 N.pl3 140  ARG140     -0.0865
    155  CZ        72.5500   24.7300   65.4570 C.cat 140  ARG140      0.5346
    156  NH1       73.1290   25.7180   66.1260 N.pl3 140  ARG140      0.1354
    157  NH2       71.9830   23.7310   66.1190 N.pl3 140  ARG140      0.1354
    158  N         68.1070   24.4310   64.6180 N.3   142  THR142     -0.1218
    159  CA        68.5150   25.7040   65.1850 C.3   142  THR142      0.1862
    160  C         67.3270   26.6440   65.0270 C.2   142  THR142      0.2287
    161  O         66.4860   26.4400   64.1510 O.2   142  THR142     -0.2866
    162  CB        69.7330   26.2810   64.4300 C.3   142  THR142      0.1770
    163  OG1       70.2490   27.4080   65.1440 O.3   142  THR142     -0.2211
    164  CG2       69.3390   26.7260   63.0390 C.3   142  THR142      0.0375
@<TRIPOS>BOND
     1    78    77    2
     2    39    38    2
     3    38    37    1
     4    77    76    1
     5    76    79    1
     6    76    75    1
     7    37    40    1
     8    37    36    1
     9    79    80    1
    10    35    33   ar
    11    35    34   ar
    12    81    80   ar
    13    81    83   ar
    14    36    28   am
    15    33    31   ar
    16    85    86    1
    17    80    82   ar
    18    34    32   ar
    19    31    32   ar
    20    31    30    1
    21    28    29    2
    22    28    27    1
    23    88    87    2
    24    83    84   ar
    25    69    68    2
    26    30    27    1
    27    82    84   ar
    28    86    87    1
    29    86    89    1
    30    27    26    1
    31    89    90    1
    32    68    67    1
    33    91    90   ar
    34    91    93   ar
    35    90    92   ar
    36    93    94   ar
    37    92    94   ar
    38    26    23   am
    39    74    72   am
    40    59    58    2
    41    67    70    1
    42    67    66    1
    43    70    71    1
    44    12    10    1
    45    23    24    2
    46    23    22    1
    47    72    71    1
    48    72    73    2
    49    58    66   am
    50    58    57    1
    51    65    63   ar
    52    65    64   ar
    53    10    11    1
    54    10     9    1
    55    63    61   ar
    56    22    25    1
    57    22    21    1
    58    64    62   ar
    59    57    56    1
    60    57    60    1
    61   125   124    1
    62   125   126    1
    63   124   121    1
    64   126   120    1
    65    61    62   ar
    66    61    60    1
    67     9     6    1
    68    21    15   am
    69   108   109    1
    70   120   121    1
    71   120   110   am
    72   121   122    1
    73    52    51    2
    74   109   110    1
    75   109   112    1
    76   102   103    2
    77   102   101    1
    78   107   105    1
    79    99    96    1
    80   110   111    2
    81     6     7    1
    82     6     5    1
    83   105   104    1
    84   105   106    1
    85    15    16    2
    86    15    14    1
    87   104   101    1
    88     7    13   am
    89     7     8    2
    90    51    50    1
    91   114   116   ar
    92   114   113   ar
    93    13    14    1
    94   122   123    2
    95   122   127   am
    96     5     3   am
    97   101   100    1
    98   100    97   am
    99   112   113    1
   100   116   118   ar
   101    96    97    1
   102    96    95    1
   103    54    53    1
   104    97    98    2
   105    14    17    1
   106   113   115   ar
   107   127   128    1
   108    44    43    2
   109    50    53    1
   110    50    49    1
   111     3     4    2
   112     3     2    1
   113    17    18    1
   114   118   119    1
   115   118   117   ar
   116    53    55    1
   117   115   117   ar
   118     2     1    1
   119    43    49   am
   120    43    42    1
   121    18    19    1
   122    18    20    1
   123   128   131    1
   124   128   129    1
   125   131   132    1
   126   129   130    2
   127   129   135   am
   128    42    41    1
   129    42    45    1
   130   135   136    1
   131    45    46    1
   132   132   133    1
   133   136   139    1
   134   136   137    1
   135    48    46    1
   136   139   140    1
   137   141   140   ar
   138   141   143   ar
   139   133   134    1
   140    46    47    1
   141   140   142   ar
   142   143   145   ar
   143   137   147   am
   144   137   138    2
   145   147   148    1
   146   142   144   ar
   147   145   144   ar
   148   145   146    1
   149   150   149    2
   150   151   148    1
   151   151   152    1
   152   148   149    1
   153   164   162    1
   154   153   152    1
   155   153   154    1
   156   154   155    2
   157   161   160    2
   158   162   163    1
   159   162   159    1
   160   158   159    1
   161   160   159    1
   162   155   157    1
   163   155   156    1
