@<TRIPOS>MOLECULE
tmp/2ovyA00.pdb
 183 174 0 0 0
SMALL
GASTEIGER

@<TRIPOS>ATOM
      1  N          8.0610    9.2590   51.0940 N.3    62  TYR62      -0.1227
      2  CA         9.4690    9.7550   50.9180 C.3    62  TYR62       0.1736
      3  C          9.9570   10.4900   52.2100 C.2    62  TYR62       0.2595
      4  O         11.0330   10.1490   52.6900 O.2    62  TYR62      -0.2718
      5  CB         9.4890   10.7400   49.7850 C.3    62  TYR62       0.0548
      6  CG        10.9510   11.3300   49.6110 C.ar   62  TYR62      -0.0200
      7  CD1       12.0670   10.4960   49.3790 C.ar   62  TYR62      -0.0009
      8  CD2       11.1250   12.7170   49.6910 C.ar   62  TYR62      -0.0009
      9  CE1       13.3390   11.0660   49.1830 C.ar   62  TYR62       0.0417
     10  CE2       12.4170   13.2600   49.5180 C.ar   62  TYR62       0.0417
     11  CZ        13.4720   12.4100   49.2680 C.ar   62  TYR62       0.1957
     12  OH        14.7210   12.9390   49.0610 O.3    62  TYR62      -0.2866
     13  N          9.1660   11.4520   52.7660 N.am   63  HIS63      -0.1975
     14  CA         9.7050   12.2140   53.9420 C.3    63  HIS63       0.1656
     15  C          9.4460   11.4290   55.2290 C.2    63  HIS63       0.2291
     16  O          8.6760   11.8520   56.1230 O.2    63  HIS63      -0.2864
     17  CB         8.9640   13.5550   54.0240 C.3    63  HIS63       0.0771
     18  CG         9.3960   14.5130   52.9750 C.ar   63  HIS63       0.0820
     19  ND1        8.6840   14.7210   51.7980 N.ar   63  HIS63      -0.2267
     20  CD2       10.5300   15.2390   52.8590 C.ar   63  HIS63       0.1154
     21  CE1        9.3380   15.6190   51.0510 C.ar   63  HIS63       0.1986
     22  NE2       10.4840   15.9120   51.6510 N.ar   63  HIS63      -0.2212
     23  N          3.6390   19.8640   50.9830 N.3   109  SER109     -0.1217
     24  CA         4.4830   21.0700   51.0030 C.3   109  SER109      0.1889
     25  C          3.9150   22.2220   51.8800 C.2   109  SER109      0.2288
     26  O          2.7210   22.3180   52.2340 O.2   109  SER109     -0.2866
     27  CB         4.6840   21.5850   49.5800 C.3   109  SER109      0.2089
     28  OG         3.4800   22.1240   49.0660 O.3   109  SER109     -0.2183
     29  N         13.6070   24.4940   51.0630 N.3   173  LEU173     -0.1245
     30  CA        14.3720   24.7030   49.8150 C.3   173  LEU173      0.1561
     31  C         14.0410   26.0930   49.2100 C.2   173  LEU173      0.2260
     32  O         14.8300   26.6190   48.4180 O.2   173  LEU173     -0.2867
     33  CB        13.9130   23.6250   48.7530 C.3   173  LEU173      0.0270
     34  CG        14.8780   23.5020   47.4980 C.3   173  LEU173      0.0019
     35  CD1       16.3970   23.1610   47.8590 C.3   173  LEU173      0.0001
     36  CD2       14.3080   22.5150   46.4350 C.3   173  LEU173      0.0001
     37  N         17.8040   29.2140   47.2600 N.3   177  PHE177     -0.1241
     38  CA        18.2190   29.9730   46.0580 C.3   177  PHE177      0.1605
     39  C         19.0210   31.2090   46.4660 C.2   177  PHE177      0.2264
     40  O         20.1220   31.4550   45.9130 O.2   177  PHE177     -0.2867
     41  CB        17.0050   30.3330   45.1850 C.3   177  PHE177      0.0534
     42  CG        16.2940   29.0240   44.7910 C.ar  177  PHE177     -0.0203
     43  CD1       16.8950   28.2940   43.7540 C.ar  177  PHE177     -0.0042
     44  CD2       15.2650   28.3820   45.6870 C.ar  177  PHE177     -0.0042
     45  CE1       16.3420   27.0440   43.3130 C.ar  177  PHE177     -0.0003
     46  CE2       14.7080   27.1080   45.2140 C.ar  177  PHE177     -0.0003
     47  CZ        15.2830   26.4720   44.0230 C.ar  177  PHE177     -0.0000
     48  N         19.9120   17.1600   52.2120 N.3   212  ASP212     -0.1225
     49  CA        18.4870   16.9230   52.0290 C.3   212  ASP212      0.1805
     50  C         18.2890   16.4050   50.6110 C.2   212  ASP212      0.2597
     51  O         17.3160   15.6780   50.3610 O.2   212  ASP212     -0.2718
     52  CB        17.7580   18.2230   52.1550 C.3   212  ASP212      0.1424
     53  CG        16.2410   17.9670   52.6090 C.2   212  ASP212      0.3668
     54  OD1       15.8640   16.7730   52.9620 O.co2 212  ASP212     -0.2456
     55  OD2       15.5060   18.9300   52.6250 O.co2 212  ASP212     -0.2456
     56  N         19.0290   16.9380   49.6130 N.am  213  LEU213     -0.1979
     57  CA        18.8800   16.4890   48.2130 C.3   213  LEU213      0.1596
     58  C         19.6820   15.2900   47.7710 C.2   213  LEU213      0.2287
     59  O         19.6100   14.9100   46.5690 O.2   213  LEU213     -0.2864
     60  CB        19.2390   17.6830   47.2300 C.3   213  LEU213      0.0297
     61  CG        18.4280   18.9470   47.5440 C.3   213  LEU213      0.0022
     62  CD1       18.9260   20.0380   46.4760 C.3   213  LEU213      0.0001
     63  CD2       16.8890   18.7040   47.3910 C.3   213  LEU213      0.0001
     64  N         19.5680   12.1930   47.4170 N.3   215  SER215     -0.1202
     65  CA        19.2230   11.0200   46.4920 C.3   215  SER215      0.2020
     66  C         19.8750   11.2090   45.1820 C.2   215  SER215      0.2618
     67  O         20.1450   10.1960   44.4310 O.2   215  SER215     -0.2717
     68  CB        17.7020   10.8680   46.3720 C.3   215  SER215      0.2103
     69  OG        17.0610   11.7280   45.4190 O.3   215  SER215     -0.2182
     70  N         20.0680   12.5020   44.7440 N.am  216  VAL216     -0.1979
     71  CA        20.6300   12.6920   43.3780 C.3   216  VAL216      0.1595
     72  C         22.1550   12.5130   43.3080 C.2   216  VAL216      0.2287
     73  O         22.7190   12.6500   42.1790 O.2   216  VAL216     -0.2864
     74  CB        20.3250   14.0980   42.8010 C.3   216  VAL216      0.0276
     75  CG1       18.7110   14.2920   42.7380 C.3   216  VAL216      0.0022
     76  CG2       21.0150   15.3120   43.7040 C.3   216  VAL216      0.0022
     77  N         19.1600    6.2640   42.8470 N.3   223  THR223     -0.1218
     78  CA        18.5310    7.5440   42.5010 C.3   223  THR223      0.1862
     79  C         17.1990    7.3550   41.7780 C.2   223  THR223      0.2287
     80  O         16.1660    7.9730   42.1390 O.2   223  THR223     -0.2866
     81  CB        19.4950    8.2900   41.5260 C.3   223  THR223      0.1770
     82  OG1       20.6800    8.5970   42.2850 O.3   223  THR223     -0.2211
     83  CG2       18.8290    9.6250   40.9880 C.3   223  THR223      0.0375
     84  N         13.4540    8.3330   43.1720 N.3   227  ALA227     -0.1245
     85  CA        12.5730    9.2980   42.4780 C.3   227  ALA227      0.1562
     86  C         11.0660    8.7450   42.4830 C.2   227  ALA227      0.2260
     87  O         10.0660    9.5000   42.6010 O.2   227  ALA227     -0.2867
     88  CB        13.1180    9.5440   41.1080 C.3   227  ALA227      0.0290
     89  N          9.5880   10.0110   45.7170 N.3   230  ILE230     -0.1231
     90  CA         9.4450   11.5420   45.6950 C.3   230  ILE230      0.1692
     91  C          8.1430   11.8310   44.8720 C.2   230  ILE230      0.2592
     92  O          7.2930   12.6060   45.3770 O.2   230  ILE230     -0.2718
     93  CB        10.6820   12.1650   45.0660 C.3   230  ILE230      0.0266
     94  CG1       11.8930   11.9660   46.0490 C.3   230  ILE230      0.0019
     95  CG2       10.4970   13.7300   44.8450 C.3   230  ILE230      0.0020
     96  CD1       13.2040   12.3570   45.4010 C.3   230  ILE230      0.0001
     97  N          7.9940   11.2000   43.7150 N.am  231  TYR231     -0.1976
     98  CA         6.7650   11.5080   42.9280 C.3   231  TYR231      0.1639
     99  C          5.4820   10.9660   43.5600 C.2   231  TYR231      0.2290
    100  O          4.4420   11.5240   43.3910 O.2   231  TYR231     -0.2864
    101  CB         6.9430   11.0900   41.4860 C.3   231  TYR231      0.0560
    102  CG         7.8190   12.0260   40.7280 C.ar  231  TYR231     -0.0198
    103  CD1        7.2760   13.2910   40.2390 C.ar  231  TYR231     -0.0009
    104  CD2        9.0970   11.6850   40.4030 C.ar  231  TYR231     -0.0009
    105  CE1        8.0950   14.1880   39.5200 C.ar  231  TYR231      0.0417
    106  CE2        9.9130   12.5530   39.7130 C.ar  231  TYR231      0.0417
    107  CZ         9.3810   13.8100   39.2390 C.ar  231  TYR231      0.1957
    108  OH        10.1860   14.6660   38.5750 O.3   231  TYR231     -0.2866
    109  N          4.4030   13.8350   45.7050 N.3   234  PHE234     -0.1241
    110  CA         4.0280   15.0250   44.9360 C.3   234  PHE234      0.1605
    111  C          2.6810   14.7520   44.2390 C.2   234  PHE234      0.2264
    112  O          1.8820   15.6570   44.1670 O.2   234  PHE234     -0.2867
    113  CB         5.0130   15.2310   43.7900 C.3   234  PHE234      0.0534
    114  CG         6.3700   15.8560   44.2220 C.ar  234  PHE234     -0.0203
    115  CD1        6.4960   16.4570   45.4000 C.ar  234  PHE234     -0.0042
    116  CD2        7.4420   15.7730   43.3420 C.ar  234  PHE234     -0.0042
    117  CE1        7.7910   17.1500   45.7530 C.ar  234  PHE234     -0.0003
    118  CE2        8.6910   16.3550   43.6450 C.ar  234  PHE234     -0.0003
    119  CZ         8.8180   17.0130   44.8970 C.ar  234  PHE234     -0.0000
    120  N          0.6910   22.3810   39.9090 N.3   249  ILE249     -0.1245
    121  CA         1.7580   22.5320   38.9200 C.3   249  ILE249      0.1561
    122  C          2.1020   21.1490   38.3230 C.2   249  ILE249      0.2260
    123  O          1.8090   20.1010   38.9190 O.2   249  ILE249     -0.2867
    124  CB         3.0290   23.1760   39.5480 C.3   249  ILE249      0.0252
    125  CG1        3.6070   22.2070   40.5940 C.3   249  ILE249      0.0019
    126  CG2        2.6940   24.6170   40.2470 C.3   249  ILE249      0.0019
    127  CD1        4.8950   22.6600   41.3520 C.3   249  ILE249      0.0001
    128  N          4.6800   19.2790   38.1170 N.3   251  MET251     -0.1230
    129  CA         5.4660   18.2770   38.8780 C.3   251  MET251      0.1702
    130  C          4.5530   17.4480   39.8420 C.2   251  MET251      0.2592
    131  O          4.8850   16.3140   40.1700 O.2   251  MET251     -0.2718
    132  CB         6.5020   19.1040   39.7190 C.3   251  MET251      0.0401
    133  CG         7.2110   18.2740   40.7320 C.3   251  MET251      0.0596
    134  SD         8.3380   19.4540   41.6620 S.3   251  MET251     -0.1393
    135  CE         7.2020   19.9550   42.8900 C.3   251  MET251      0.0692
    136  N          3.4310   18.0610   40.2800 N.am  252  MET252     -0.1979
    137  CA         2.4820   17.4610   41.2720 C.3   252  MET252      0.1605
    138  C          1.2860   16.8080   40.5230 C.2   252  MET252      0.2287
    139  O          0.4960   16.1600   41.1450 O.2   252  MET252     -0.2864
    140  CB         2.0050   18.4920   42.2720 C.3   252  MET252      0.0413
    141  CG         3.2410   19.0200   43.0310 C.3   252  MET252      0.0598
    142  SD         2.5290   19.7590   44.4250 S.3   252  MET252     -0.1393
    143  CE         4.0690   19.5820   45.3640 C.3   252  MET252      0.0692
    144  N         11.2720   17.1530   33.7460 N.3   263  GLY263     -0.1210
    145  CA        11.2340   17.8520   35.0610 C.3   263  GLY263      0.1956
    146  C         12.5450   17.6050   35.7970 C.2   263  GLY263      0.2611
    147  O         13.0730   18.4930   36.4720 O.2   263  GLY263     -0.2717
    148  N         13.0730   16.3640   35.7180 N.am  264  GLN264     -0.1979
    149  CA        14.3670   16.0780   36.3440 C.3   264  GLN264      0.1601
    150  C         15.5220   16.8910   35.7600 C.2   264  GLN264      0.2287
    151  O         16.3040   17.5090   36.4470 O.2   264  GLN264     -0.2864
    152  CB        14.7160   14.5980   36.2330 C.3   264  GLN264      0.0394
    153  CG        13.6670   13.7810   37.0470 C.3   264  GLN264      0.0908
    154  CD        13.9450   13.8820   38.5300 C.2   264  GLN264      0.2608
    155  OE1       15.0710   13.7400   38.9980 O.2   264  GLN264     -0.2717
    156  NE2       12.9850   14.4320   39.2380 N.am  264  GLN264     -0.0878
    157  N         15.2380   19.9090   34.4620 N.3   266  GLY266     -0.1210
    158  CA        14.9920   21.2580   35.1170 C.3   266  GLY266      0.1956
    159  C         15.6170   21.3570   36.4910 C.2   266  GLY266      0.2611
    160  O         16.3350   22.2950   36.8100 O.2   266  GLY266     -0.2717
    161  N         15.3030   20.3380   37.3190 N.am  267  PHE267     -0.1976
    162  CA        15.7970   20.3190   38.6910 C.3   267  PHE267      0.1639
    163  C         17.2070   20.2510   38.7770 C.2   267  PHE267      0.2290
    164  O         17.8260   20.9490   39.6320 O.2   267  PHE267     -0.2864
    165  CB        15.1070   19.1410   39.4160 C.3   267  PHE267      0.0560
    166  CG        15.4780   19.1110   40.8840 C.ar  267  PHE267     -0.0200
    167  CD1       14.7730   20.0760   41.7040 C.ar  267  PHE267     -0.0042
    168  CD2       16.4310   18.2050   41.4140 C.ar  267  PHE267     -0.0042
    169  CE1       15.0270   20.1240   43.0500 C.ar  267  PHE267     -0.0003
    170  CE2       16.6610   18.2680   42.8790 C.ar  267  PHE267     -0.0003
    171  CZ        15.9950   19.2150   43.5780 C.ar  267  PHE267     -0.0000
    172  N         18.7390   23.6730   37.5420 N.3   270  ALA270     -0.1231
    173  CA        18.4040   24.8770   38.3270 C.3   270  ALA270      0.1694
    174  C         18.8220   24.7730   39.7850 C.2   270  ALA270      0.2591
    175  O         18.9980   25.7930   40.4650 O.2   270  ALA270     -0.2718
    176  CB        16.9300   25.1900   38.2750 C.3   270  ALA270      0.0304
    177  N         18.9180   23.5330   40.2940 N.am  271  VAL271     -0.1980
    178  CA        19.0150   23.3740   41.7550 C.3   271  VAL271      0.1595
    179  C         20.1570   22.4300   42.0650 C.2   271  VAL271      0.2287
    180  O         21.1020   22.8650   42.7720 O.2   271  VAL271     -0.2864
    181  CB        17.6630   22.7990   42.3680 C.3   271  VAL271      0.0276
    182  CG1       17.7950   22.5670   43.9500 C.3   271  VAL271      0.0022
    183  CG2       16.3400   23.5550   41.9920 C.3   271  VAL271      0.0022
@<TRIPOS>BOND
     1   144   145    1
     2   157   158    1
     3   145   146    1
     4   158   159    1
     5   148   146   am
     6   148   149    1
     7   150   149    1
     8   150   151    2
     9   146   147    2
    10   152   149    1
    11   152   153    1
    12   159   160    2
    13   159   161   am
    14   153   154    1
    15   161   162    1
    16   172   173    1
    17   128   129    1
    18   176   173    1
    19   122   123    2
    20   122   121    1
    21   173   174    1
    22   154   155    2
    23   154   156   am
    24   108   107    1
    25   162   163    1
    26   162   165    1
    27   163   164    2
    28   129   132    1
    29   129   130    1
    30   121   124    1
    31   121   120    1
    32   107   105   ar
    33   107   106   ar
    34   165   166    1
    35   105   103   ar
    36   124   126    1
    37   124   125    1
    38   106   104   ar
    39   132   133    1
    40   174   177   am
    41   174   175    2
    42   130   131    2
    43   130   136   am
    44   103   102   ar
    45   136   137    1
    46   177   178    1
    47   104   102   ar
    48   138   139    2
    49   138   137    1
    50   125   127    1
    51   102   101    1
    52   133   134    1
    53   166   168   ar
    54   166   167   ar
    55    83    81    1
    56    88    85    1
    57   137   140    1
    58   168   170   ar
    59   101    98    1
    60    81    82    1
    61    81    78    1
    62   134   135    1
    63   167   169   ar
    64   178   179    1
    65   178   181    1
    66    79    80    2
    67    79    78    1
    68   183   181    1
    69   179   180    2
    70    73    72    2
    71   140   141    1
    72   181   182    1
    73    85    86    1
    74    85    84    1
    75    86    87    2
    76    78    77    1
    77    75    74    1
    78    74    71    1
    79    74    76    1
    80   170   171   ar
    81    98    99    1
    82    98    97    1
    83   141   142    1
    84   169   171   ar
    85    72    71    1
    86    45    43   ar
    87    45    47   ar
    88   116   118   ar
    89   116   114   ar
    90    71    70    1
    91   100    99    2
    92   118   119   ar
    93    97    91   am
    94    43    42   ar
    95   113   114    1
    96   113   110    1
    97    47    46   ar
    98   112   111    2
    99   114   115   ar
   100   111   110    1
   101   142   143    1
   102    67    66    2
   103    70    66   am
   104    42    41    1
   105    42    44   ar
   106    95    93    1
   107    91    92    2
   108    91    90    1
   109   119   117   ar
   110   110   109    1
   111    93    90    1
   112    93    94    1
   113    66    65    1
   114    41    38    1
   115    46    44   ar
   116   115   117   ar
   117    96    94    1
   118    69    68    1
   119    90    89    1
   120    40    39    2
   121    38    39    1
   122    38    37    1
   123    68    65    1
   124    36    34    1
   125    62    61    1
   126    65    64    1
   127    59    58    2
   128    60    61    1
   129    60    57    1
   130    63    61    1
   131    34    35    1
   132    34    33    1
   133    58    57    1
   134    57    56    1
   135    32    31    2
   136    33    30    1
   137    12    11    1
   138    28    27    1
   139     9    11   ar
   140     9     7   ar
   141    31    30    1
   142    11    10   ar
   143     7     6   ar
   144    10     8   ar
   145    27    24    1
   146     6     8   ar
   147     6     5    1
   148    56    50   am
   149     5     2    1
   150    30    29    1
   151    51    50    2
   152    50    49    1
   153     2     1    1
   154     2     3    1
   155    23    24    1
   156    24    25    1
   157    21    22   ar
   158    21    19   ar
   159    22    20   ar
   160    19    18   ar
   161    25    26    2
   162    49    52    1
   163    49    48    1
   164    52    53    1
   165     3     4    2
   166     3    13   am
   167    53    55   ar
   168    53    54   ar
   169    13    14    1
   170    20    18   ar
   171    18    17    1
   172    14    17    1
   173    14    15    1
   174    15    16    2
