@<TRIPOS>MOLECULE
tmp/2ovzA00.pdb
 188 187 0 0 0
SMALL
GASTEIGER

@<TRIPOS>ATOM
      1  N         29.6860   14.3000   37.1360 N.3     1  PHE1       -0.1241
      2  CA        29.3230   12.9090   37.5290 C.3     1  PHE1        0.1605
      3  C         28.1830   12.3900   36.6580 C.2     1  PHE1        0.2264
      4  O         27.7170   11.2630   36.8320 O.2     1  PHE1       -0.2867
      5  CB        28.8960   12.8650   38.9990 C.3     1  PHE1        0.0534
      6  CG        29.8310   13.5910   39.9280 C.ar    1  PHE1       -0.0203
      7  CD1       29.7120   14.9640   40.1270 C.ar    1  PHE1       -0.0042
      8  CD2       30.8390   12.9060   40.5940 C.ar    1  PHE1       -0.0042
      9  CE1       30.5860   15.6410   40.9770 C.ar    1  PHE1       -0.0003
     10  CE2       31.7180   13.5720   41.4450 C.ar    1  PHE1       -0.0003
     11  CZ        31.5910   14.9420   41.6370 C.ar    1  PHE1       -0.0000
     12  N         32.0880   19.6210   52.6170 N.3    73  ASP73      -0.1239
     13  CA        31.4100   20.5410   53.5160 C.3    73  ASP73       0.1674
     14  C         31.7300   20.3320   54.9900 C.2    73  ASP73       0.2266
     15  O         31.0200   20.8380   55.8530 O.2    73  ASP73      -0.2867
     16  CB        29.9000   20.4030   53.3080 C.3    73  ASP73       0.1410
     17  CG        29.4360   18.9640   53.4520 C.2    73  ASP73       0.3668
     18  OD1       30.2790   18.1260   53.8430 O.co2  73  ASP73      -0.2456
     19  OD2       28.2530   18.6630   53.1860 O.co2  73  ASP73      -0.2456
     20  N         26.9410   15.7410   56.1790 N.3    77  GLY77      -0.1210
     21  CA        26.5830   16.2200   54.8550 C.3    77  GLY77       0.1956
     22  C         27.1620   15.3120   53.7830 C.2    77  GLY77       0.2612
     23  O         26.9140   14.1060   53.7820 O.2    77  GLY77      -0.2717
     24  N         27.9220   15.8930   52.8590 N.am   78  LEU78      -0.1965
     25  CA        28.5580   15.1280   51.7950 C.3    78  LEU78       0.1728
     26  C         29.6670   14.3110   52.4470 C.2    78  LEU78       0.2616
     27  O         30.5570   14.8740   53.0800 O.2    78  LEU78      -0.2715
     28  CB        29.1520   16.0740   50.7480 C.3    78  LEU78       0.0311
     29  CG        29.9160   15.4010   49.6050 C.3    78  LEU78       0.0022
     30  CD1       28.9700   14.4990   48.8230 C.3    78  LEU78       0.0001
     31  CD2       30.5270   16.4640   48.7050 C.3    78  LEU78       0.0001
     32  N         29.6100   12.9890   52.2970 N.am   79  LEU79      -0.1963
     33  CA        30.6040   12.1060   52.9020 C.3    79  LEU79       0.1728
     34  C         31.7590   11.8180   51.9590 C.2    79  LEU79       0.2616
     35  O         32.9010   11.6560   52.3850 O.2    79  LEU79      -0.2715
     36  CB        29.9550   10.7820   53.3070 C.3    79  LEU79       0.0311
     37  CG        28.6830   10.8620   54.1550 C.3    79  LEU79       0.0022
     38  CD1       28.1790    9.4580   54.4560 C.3    79  LEU79       0.0001
     39  CD2       28.9720   11.6290   55.4390 C.3    79  LEU79       0.0001
     40  N         31.4480   11.7650   50.6720 N.am   80  ALA80      -0.1963
     41  CA        32.4460   11.4670   49.6610 C.3    80  ALA80       0.1728
     42  C         31.8030   11.5400   48.2940 C.2    80  ALA80       0.2616
     43  O         30.5910   11.7230   48.1810 O.2    80  ALA80      -0.2715
     44  CB        32.9790   10.0720   49.8850 C.3    80  ALA80       0.0334
     45  N         32.6180   11.4030   47.2540 N.am   81  HIS81      -0.1959
     46  CA        32.1100   11.4010   45.8870 C.3    81  HIS81       0.1787
     47  C         33.1280   10.7390   44.9760 C.2    81  HIS81       0.2620
     48  O         34.3210   10.6660   45.2960 O.2    81  HIS81      -0.2715
     49  CB        31.8080   12.8140   45.3860 C.3    81  HIS81       0.0785
     50  CG        33.0210   13.6710   45.2380 C.ar   81  HIS81       0.0821
     51  ND1       33.6210   14.2990   46.3070 N.ar   81  HIS81      -0.2267
     52  CD2       33.7680   13.9820   44.1510 C.ar   81  HIS81       0.1154
     53  CE1       34.6830   14.9610   45.8870 C.ar   81  HIS81       0.1986
     54  NE2       34.7950   14.7850   44.5830 N.ar   81  HIS81      -0.2212
     55  N         32.6430   10.2660   43.8350 N.am   82  ALA82      -0.1977
     56  CA        33.4910    9.5730   42.8820 C.3    82  ALA82       0.1597
     57  C         33.0590    9.9190   41.4570 C.2    82  ALA82       0.2287
     58  O         31.8930   10.2230   41.2100 O.2    82  ALA82      -0.2864
     59  CB        33.3840    8.0670   43.1240 C.3    82  ALA82       0.0319
     60  N         31.0440    7.1400   60.4280 N.3   109  TYR109     -0.1241
     61  CA        30.5680    6.4970   59.2160 C.3   109  TYR109      0.1605
     62  C         31.4310    5.3100   58.8450 C.2   109  TYR109      0.2264
     63  O         32.6540    5.3600   58.9790 O.2   109  TYR109     -0.2867
     64  CB        30.5750    7.5080   58.0770 C.3   109  TYR109      0.0534
     65  CG        29.5660    8.6070   58.2670 C.ar  109  TYR109     -0.0201
     66  CD1       28.2350    8.4180   57.9000 C.ar  109  TYR109     -0.0009
     67  CD2       29.9280    9.8320   58.8310 C.ar  109  TYR109     -0.0009
     68  CE1       27.2860    9.4160   58.0850 C.ar  109  TYR109      0.0417
     69  CE2       28.9780   10.8470   59.0200 C.ar  109  TYR109      0.0417
     70  CZ        27.6570   10.6290   58.6400 C.ar  109  TYR109      0.1957
     71  OH        26.7000   11.6170   58.7700 O.3   109  TYR109     -0.2866
     72  N         31.2730    0.6020   53.9790 N.3   113  LEU113     -0.1231
     73  CA        30.0480    0.8650   53.2300 C.3   113  LEU113      0.1693
     74  C         30.1740    2.0730   52.2940 C.2   113  LEU113      0.2591
     75  O         29.7720    2.0110   51.1340 O.2   113  LEU113     -0.2718
     76  CB        28.8780    1.0860   54.1930 C.3   113  LEU113      0.0284
     77  CG        28.5090   -0.1070   55.0830 C.3   113  LEU113      0.0019
     78  CD1       27.2600    0.2390   55.8940 C.3   113  LEU113      0.0001
     79  CD2       28.2720   -1.3480   54.2140 C.3   113  LEU113      0.0001
     80  N         30.7190    3.1810   52.7860 N.am  114  VAL114     -0.1980
     81  CA        30.8560    4.3530   51.9290 C.3   114  VAL114      0.1595
     82  C         31.7620    4.0290   50.7290 C.2   114  VAL114      0.2287
     83  O         31.4630    4.4010   49.5950 O.2   114  VAL114     -0.2864
     84  CB        31.4070    5.5640   52.7280 C.3   114  VAL114      0.0276
     85  CG1       31.6220    6.7570   51.7990 C.3   114  VAL114      0.0022
     86  CG2       30.4230    5.9280   53.8430 C.3   114  VAL114      0.0022
     87  N         29.9620    2.0430   48.1400 N.3   117  HIS117     -0.1226
     88  CA        29.0520    2.9370   47.4340 C.3   117  HIS117      0.1752
     89  C         29.8530    3.7250   46.4070 C.2   117  HIS117      0.2595
     90  O         29.4900    3.7780   45.2340 O.2   117  HIS117     -0.2718
     91  CB        28.3940    3.9240   48.4140 C.3   117  HIS117      0.0759
     92  CG        27.3960    4.8450   47.7760 C.ar  117  HIS117      0.0818
     93  ND1       26.0390    4.5990   47.7910 N.ar  117  HIS117     -0.2268
     94  CD2       27.5560    6.0160   47.1130 C.ar  117  HIS117      0.1154
     95  CE1       25.4070    5.5780   47.1660 C.ar  117  HIS117      0.1986
     96  NE2       26.3040    6.4510   46.7460 N.ar  117  HIS117     -0.2212
     97  N         30.9500    4.3340   46.8520 N.am  118  GLN118     -0.1979
     98  CA        31.7820    5.1370   45.9610 C.3   118  GLN118      0.1601
     99  C         32.3180    4.3440   44.7750 C.2   118  GLN118      0.2287
    100  O         32.3190    4.8380   43.6450 O.2   118  GLN118     -0.2864
    101  CB        32.9610    5.7590   46.7280 C.3   118  GLN118      0.0394
    102  CG        32.5620    6.8310   47.7330 C.3   118  GLN118      0.0908
    103  CD        31.6950    7.8880   47.0960 C.2   118  GLN118      0.2608
    104  OE1       32.0610    8.4560   46.0720 O.2   118  GLN118     -0.2717
    105  NE2       30.5390    8.1570   47.6940 N.am  118  GLN118     -0.0878
    106  N         29.9130    3.9720   42.0400 N.3   121  HIS121     -0.1241
    107  CA        29.8600    5.1150   41.1230 C.3   121  HIS121      0.1621
    108  C         31.0650    5.1200   40.1930 C.2   121  HIS121      0.2264
    109  O         30.9490    5.4730   39.0110 O.2   121  HIS121     -0.2867
    110  CB        29.8560    6.4450   41.8810 C.3   121  HIS121      0.0745
    111  CG        28.5410    6.7970   42.4970 C.ar  121  HIS121      0.0817
    112  ND1       27.3490    6.7090   41.8130 N.ar  121  HIS121     -0.2268
    113  CD2       28.2360    7.2720   43.7270 C.ar  121  HIS121      0.1154
    114  CE1       26.3640    7.1120   42.5970 C.ar  121  HIS121      0.1986
    115  NE2       26.8770    7.4600   43.7630 N.ar  121  HIS121     -0.2212
    116  N         22.2890    6.0100   40.9960 N.3   127  HIS127     -0.1241
    117  CA        21.6020    5.8030   42.2670 C.3   127  HIS127      0.1621
    118  C         20.3900    4.8820   42.1840 C.2   127  HIS127      0.2264
    119  O         19.7330    4.7790   41.1510 O.2   127  HIS127     -0.2867
    120  CB        21.1830    7.1510   42.8600 C.3   127  HIS127      0.0745
    121  CG        22.2680    7.8240   43.6360 C.ar  127  HIS127      0.0817
    122  ND1       22.3440    9.1910   43.7780 N.ar  127  HIS127     -0.2268
    123  CD2       23.3030    7.3130   44.3460 C.ar  127  HIS127      0.1154
    124  CE1       23.3790    9.4960   44.5410 C.ar  127  HIS127      0.1986
    125  NE2       23.9760    8.3740   44.9000 N.ar  127  HIS127     -0.2212
    126  N         18.9570   -0.4060   49.4330 N.3   133  ALA133     -0.1231
    127  CA        20.0800   -0.6880   48.5470 C.3   133  ALA133      0.1694
    128  C         21.3290    0.1100   48.9020 C.2   133  ALA133      0.2591
    129  O         21.2450    1.2120   49.4510 O.2   133  ALA133     -0.2718
    130  CB        19.6830   -0.4160   47.1020 C.3   133  ALA133      0.0304
    131  N         22.4930   -0.4550   48.6000 N.am  134  LEU134     -0.1980
    132  CA        23.7590    0.2210   48.8590 C.3   134  LEU134      0.1596
    133  C         23.8650    1.4890   48.0250 C.2   134  LEU134      0.2287
    134  O         24.4290    2.4780   48.4720 O.2   134  LEU134     -0.2864
    135  CB        24.9470   -0.7030   48.5170 C.3   134  LEU134      0.0297
    136  CG        26.3610   -0.0930   48.5290 C.3   134  LEU134      0.0022
    137  CD1       26.6190    0.5180   49.8840 C.3   134  LEU134      0.0001
    138  CD2       27.4130   -1.1600   48.2340 C.3   134  LEU134      0.0001
    139  N         21.6820    3.5640   47.3340 N.3   136  TYR136     -0.1228
    140  CA        20.6640    4.5410   47.6880 C.3   136  TYR136      0.1721
    141  C         21.4870    5.7980   47.9640 C.2   136  TYR136      0.2437
    142  O         22.6210    5.6880   48.4370 O.2   136  TYR136     -0.2733
    143  CB        19.9440    4.1100   48.9580 C.3   136  TYR136      0.0547
    144  CG        18.8090    5.0270   49.3260 C.ar  136  TYR136     -0.0200
    145  CD1       17.6630    5.0860   48.5420 C.ar  136  TYR136     -0.0009
    146  CD2       18.8730    5.8250   50.4640 C.ar  136  TYR136     -0.0009
    147  CE1       16.5960    5.9120   48.8830 C.ar  136  TYR136      0.0417
    148  CE2       17.8150    6.6590   50.8210 C.ar  136  TYR136      0.0417
    149  CZ        16.6780    6.6970   50.0280 C.ar  136  TYR136      0.1957
    150  OH        15.6260    7.5020   50.3920 O.3   136  TYR136     -0.2866
    151  N         20.9410    6.9980   47.6800 N.am  137  PRO137     -0.2718
    152  CA        21.6440    8.2690   47.8880 C.3   137  PRO137      0.1535
    153  C         22.0490    8.6260   49.3190 C.2   137  PRO137      0.2598
    154  O         23.0470    9.3280   49.5230 O.2   137  PRO137     -0.2715
    155  CB        20.6700    9.3030   47.3210 C.3   137  PRO137      0.0310
    156  CG        19.9520    8.5460   46.2580 C.3   137  PRO137      0.0237
    157  CD        19.6680    7.2370   46.9730 C.3   137  PRO137      0.0939
    158  N         21.2810    8.1530   50.2950 N.am  138  MET138     -0.1964
    159  CA        21.5440    8.4790   51.6950 C.3   138  MET138      0.1736
    160  C         22.1400    7.3350   52.5220 C.2   138  MET138      0.2616
    161  O         21.6110    6.2200   52.5620 O.2   138  MET138     -0.2715
    162  CB        20.2420    8.9880   52.3340 C.3   138  MET138      0.0427
    163  CG        20.4320    9.9320   53.5140 C.3   138  MET138      0.0599
    164  SD        20.5790    9.0810   55.0870 S.3   138  MET138     -0.1393
    165  CE        18.8910    9.1190   55.6440 C.3   138  MET138      0.0692
    166  N         23.2560    7.6310   53.1800 N.am  139  TYR139     -0.1960
    167  CA        23.9460    6.6600   54.0150 C.3   139  TYR139      0.1771
    168  C         23.0870    6.1720   55.1740 C.2   139  TYR139      0.2619
    169  O         22.4400    6.9660   55.8540 O.2   139  TYR139     -0.2715
    170  CB        25.2330    7.2690   54.5860 C.3   139  TYR139      0.0574
    171  CG        25.9430    6.3630   55.5760 C.ar  139  TYR139     -0.0198
    172  CD1       27.0160    5.5680   55.1820 C.ar  139  TYR139     -0.0009
    173  CD2       25.5330    6.2980   56.9110 C.ar  139  TYR139     -0.0009
    174  CE1       27.6710    4.7330   56.0860 C.ar  139  TYR139      0.0417
    175  CE2       26.1810    5.4610   57.8290 C.ar  139  TYR139      0.0417
    176  CZ        27.2550    4.6830   57.4050 C.ar  139  TYR139      0.1957
    177  OH        27.9320    3.8720   58.2900 O.3   139  TYR139     -0.2866
    178  N         23.0960    4.8620   55.4010 N.am  140  ARG140     -0.1977
    179  CA        22.3510    4.2490   56.4950 C.3   140  ARG140      0.1597
    180  C         23.1200    2.9840   56.8630 C.2   140  ARG140      0.2287
    181  O         23.3770    2.1520   55.9930 O.2   140  ARG140     -0.2864
    182  CB        20.9350    3.8450   56.0600 C.3   140  ARG140      0.0334
    183  CG        20.3860    4.5600   54.8370 C.3   140  ARG140      0.0492
    184  CD        19.7840    5.9180   55.1590 C.3   140  ARG140      0.2205
    185  NE        18.6690    5.8240   56.0970 N.pl3 140  ARG140     -0.0865
    186  CZ        18.7950    5.9210   57.4160 C.cat 140  ARG140      0.5346
    187  NH1       19.9890    6.1200   57.9550 N.pl3 140  ARG140      0.1354
    188  NH2       17.7280    5.8150   58.1980 N.pl3 140  ARG140      0.1354
@<TRIPOS>BOND
     1     3     4    2
     2     3     2    1
     3     1     2    1
     4     2     5    1
     5     5     6    1
     6   109   108    2
     7     6     7   ar
     8     6     8   ar
     9     7     9   ar
    10   108   107    1
    11     8    10   ar
    12     9    11   ar
    13   116   117    1
    14   107   110    1
    15   107   106    1
    16   119   118    2
    17    58    57    2
    18    10    11   ar
    19    57    56    1
    20   112   111   ar
    21   112   114   ar
    22   110   111    1
    23   118   117    1
    24   117   120    1
    25   111   113   ar
    26   114   115   ar
    27   120   121    1
    28    56    59    1
    29    56    55    1
    30   121   122   ar
    31   121   123   ar
    32   100    99    2
    33   113   115   ar
    34   122   124   ar
    35    55    47   am
    36    52    54   ar
    37    52    50   ar
    38   123   125   ar
    39   124   125   ar
    40    54    53   ar
    41    99    98    1
    42    47    48    2
    43    47    46    1
    44    90    89    2
    45    50    49    1
    46    50    51   ar
    47    49    46    1
    48    46    45    1
    49    53    51   ar
    50    98   101    1
    51    98    97    1
    52   104   103    2
    53   156   157    1
    54   156   155    1
    55    89    97   am
    56    89    88    1
    57   101   102    1
    58    96    94   ar
    59    96    95   ar
    60   157   151    1
    61   103   105   am
    62   103   102    1
    63   130   127    1
    64    94    92   ar
    65    95    93   ar
    66    45    42   am
    67   155   152    1
    68   139   140    1
    69    88    87    1
    70    88    91    1
    71   151   152    1
    72   151   141   am
    73   140   141    1
    74   140   143    1
    75    92    93   ar
    76    92    91    1
    77   152   153    1
    78   141   142    2
    79   133   134    2
    80   133   132    1
    81    43    42    2
    82   138   136    1
    83    42    41    1
    84   135   136    1
    85   135   132    1
    86   136   137    1
    87   145   147   ar
    88   145   144   ar
    89   127   128    1
    90   127   126    1
    91   131   132    1
    92   131   128   am
    93    31    29    1
    94    30    29    1
    95   147   149   ar
    96   128   129    2
    97   143   144    1
    98   153   154    2
    99   153   158   am
   100   144   146   ar
   101    83    82    2
   102    29    28    1
   103    41    44    1
   104    41    40    1
   105   149   150    1
   106   149   148   ar
   107   158   159    1
   108   146   148   ar
   109    40    34   am
   110    82    81    1
   111    28    25    1
   112    75    74    2
   113   159   162    1
   114   159   160    1
   115    25    26    1
   116    25    24    1
   117    85    84    1
   118    81    84    1
   119    81    80    1
   120    34    35    2
   121    34    33    1
   122    74    80   am
   123    74    73    1
   124    32    26   am
   125    32    33    1
   126   162   163    1
   127    26    27    2
   128   160   161    2
   129   160   166   am
   130    12    13    1
   131    84    86    1
   132    24    22   am
   133    33    36    1
   134   166   167    1
   135    19    17   ar
   136    73    72    1
   137    73    76    1
   138    36    37    1
   139    16    17    1
   140    16    13    1
   141    17    18   ar
   142   163   164    1
   143    13    14    1
   144    23    22    2
   145    22    21    1
   146   167   170    1
   147   167   168    1
   148    37    38    1
   149    37    39    1
   150    76    77    1
   151    79    77    1
   152   170   171    1
   153   183   184    1
   154   183   182    1
   155    21    20    1
   156    14    15    2
   157    77    78    1
   158   164   165    1
   159   184   185    1
   160   168   178   am
   161   168   169    2
   162   172   171   ar
   163   172   174   ar
   164   178   179    1
   165   171   173   ar
   166   181   180    2
   167   182   179    1
   168   174   176   ar
   169   185   186    2
   170   179   180    1
   171   173   175   ar
   172   176   175   ar
   173   176   177    1
   174   186   187    1
   175   186   188    1
   176    66    68   ar
   177    66    65   ar
   178    64    65    1
   179    64    61    1
   180    68    70   ar
   181    65    67   ar
   182    70    71    1
   183    70    69   ar
   184    67    69   ar
   185    62    63    2
   186    62    61    1
   187    61    60    1
