@<TRIPOS>MOLECULE
tmp/2ow0B00.pdb
 171 170 0 0 0
SMALL
GASTEIGER

@<TRIPOS>ATOM
      1  N         70.0250    7.9530   58.5460 N.3    73  GLY73      -0.1210
      2  CA        70.5570    7.9900   57.1950 C.3    73  GLY73       0.1956
      3  C         69.9300    9.1490   56.4370 C.2    73  GLY73       0.2612
      4  O         69.9470   10.2790   56.9150 O.2    73  GLY73      -0.2717
      5  N         69.3750    8.8910   55.2590 N.am   74  LEU74      -0.1965
      6  CA        68.7480    9.9640   54.4900 C.3    74  LEU74       0.1728
      7  C         67.3970   10.2900   55.1270 C.2    74  LEU74       0.2616
      8  O         66.6450    9.3900   55.4990 O.2    74  LEU74      -0.2715
      9  CB        68.5690    9.5410   53.0320 C.3    74  LEU74       0.0311
     10  CG        69.1470   10.5140   52.0020 C.3    74  LEU74       0.0022
     11  CD1       70.6090   10.8230   52.3410 C.3    74  LEU74       0.0001
     12  CD2       69.0320    9.9170   50.6080 C.3    74  LEU74       0.0001
     13  N         67.0960   11.5780   55.2580 N.am   75  LEU75      -0.1963
     14  CA        65.8520   12.0080   55.8830 C.3    75  LEU75       0.1728
     15  C         64.7840   12.2870   54.8430 C.2    75  LEU75       0.2616
     16  O         63.5920   12.1450   55.1160 O.2    75  LEU75      -0.2715
     17  CB        66.0870   13.2760   56.7050 C.3    75  LEU75       0.0311
     18  CG        67.2190   13.2190   57.7470 C.3    75  LEU75       0.0022
     19  CD1       67.3710   14.5860   58.4120 C.3    75  LEU75       0.0001
     20  CD2       66.9190   12.1470   58.7830 C.3    75  LEU75       0.0001
     21  N         65.2230   12.6970   53.6550 N.am   76  ALA76      -0.1963
     22  CA        64.3220   13.0090   52.5510 C.3    76  ALA76       0.1728
     23  C         65.1080   13.3990   51.3050 C.2    76  ALA76       0.2616
     24  O         66.3320   13.5540   51.3430 O.2    76  ALA76      -0.2715
     25  CB        63.3850   14.1560   52.9540 C.3    76  ALA76       0.0334
     26  N         64.4070   13.5510   50.1910 N.am   77  HIS77      -0.1959
     27  CA        65.0770   13.9720   48.9730 C.3    77  HIS77       0.1787
     28  C         64.1360   14.7450   48.0690 C.2    77  HIS77       0.2620
     29  O         62.9190   14.5700   48.1280 O.2    77  HIS77      -0.2715
     30  CB        65.6960   12.7730   48.2380 C.3    77  HIS77       0.0785
     31  CG        64.7210   11.6910   47.8880 C.ar   77  HIS77       0.0821
     32  ND1       65.0380   10.3500   47.9750 N.ar   77  HIS77      -0.2267
     33  CD2       63.4420   11.7420   47.4500 C.ar   77  HIS77       0.1154
     34  CE1       63.9950    9.6260   47.6140 C.ar   77  HIS77       0.1986
     35  NE2       63.0110   10.4480   47.2890 N.ar   77  HIS77      -0.2212
     36  N         64.7060   15.6350   47.2620 N.am   78  ALA78      -0.1977
     37  CA        63.9220   16.4560   46.3490 C.3    78  ALA78       0.1597
     38  C         64.6630   16.5440   45.0260 C.2    78  ALA78       0.2287
     39  O         65.8960   16.5110   45.0000 O.2    78  ALA78      -0.2864
     40  CB        63.7190   17.8620   46.9310 C.3    78  ALA78       0.0319
     41  N         61.5240   22.9340   59.0590 N.3   109  LEU109     -0.1231
     42  CA        62.8950   23.2320   58.6240 C.3   109  LEU109      0.1693
     43  C         63.3740   22.2960   57.5200 C.2   109  LEU109      0.2591
     44  O         64.0030   22.7350   56.5530 O.2   109  LEU109     -0.2718
     45  CB        63.8660   23.1500   59.8120 C.3   109  LEU109      0.0284
     46  CG        63.6890   24.2120   60.9050 C.3   109  LEU109      0.0019
     47  CD1       64.7490   23.9880   61.9780 C.3   109  LEU109      0.0001
     48  CD2       63.7950   25.6280   60.3090 C.3   109  LEU109      0.0001
     49  N         63.0840   21.0070   57.6630 N.am  110  VAL110     -0.1980
     50  CA        63.5120   20.0510   56.6520 C.3   110  VAL110      0.1595
     51  C         62.7850   20.3370   55.3400 C.2   110  VAL110      0.2287
     52  O         63.3920   20.3190   54.2650 O.2   110  VAL110     -0.2864
     53  CB        63.2520   18.5850   57.0930 C.3   110  VAL110      0.0276
     54  CG1       63.6840   17.6340   55.9980 C.3   110  VAL110      0.0022
     55  CG2       64.0490   18.2650   58.3480 C.3   110  VAL110      0.0022
     56  N         64.2130   23.2900   53.4740 N.3   113  HIS113     -0.1226
     57  CA        65.4740   22.8800   52.8600 C.3   113  HIS113      0.1752
     58  C         65.1780   22.1260   51.5600 C.2   113  HIS113      0.2595
     59  O         65.6900   22.4730   50.5040 O.2   113  HIS113     -0.2718
     60  CB        66.2450   21.9590   53.8090 C.3   113  HIS113      0.0759
     61  CG        67.5640   21.5030   53.2680 C.ar  113  HIS113      0.0818
     62  ND1       68.7430   22.1610   53.5370 N.ar  113  HIS113     -0.2268
     63  CD2       67.8860   20.4650   52.4590 C.ar  113  HIS113      0.1154
     64  CE1       69.7370   21.5470   52.9190 C.ar  113  HIS113      0.1986
     65  NE2       69.2440   20.5150   52.2590 N.ar  113  HIS113     -0.2212
     66  N         64.3530   21.0880   51.6410 N.am  114  GLN114     -0.1979
     67  CA        63.9940   20.3190   50.4520 C.3   114  GLN114      0.1601
     68  C         63.3980   21.2070   49.3580 C.2   114  GLN114      0.2287
     69  O         63.7290   21.0580   48.1770 O.2   114  GLN114     -0.2864
     70  CB        63.0010   19.2140   50.8170 C.3   114  GLN114      0.0394
     71  CG        63.5420   18.2670   51.8460 C.3   114  GLN114      0.0908
     72  CD        64.8800   17.6940   51.4210 C.2   114  GLN114      0.2608
     73  OE1       65.8420   17.6800   52.1940 O.2   114  GLN114     -0.2717
     74  NE2       64.9470   17.2190   50.1870 N.am  114  GLN114     -0.0878
     75  N         65.8810   22.8280   47.3220 N.3   117  HIS117     -0.1241
     76  CA        66.4070   21.9810   46.2580 C.3   117  HIS117      0.1621
     77  C         65.4120   21.9500   45.1010 C.2   117  HIS117      0.2264
     78  O         65.7940   22.0810   43.9290 O.2   117  HIS117     -0.2867
     79  CB        66.6190   20.5580   46.7610 C.3   117  HIS117      0.0745
     80  CG        67.8170   20.4010   47.6440 C.ar  117  HIS117      0.0817
     81  ND1       69.0640   20.8610   47.2830 N.ar  117  HIS117     -0.2268
     82  CD2       67.9690   19.8120   48.8540 C.ar  117  HIS117      0.1154
     83  CE1       69.9330   20.5630   48.2320 C.ar  117  HIS117      0.1986
     84  NE2       69.2940   19.9250   49.1970 N.ar  117  HIS117     -0.2212
     85  N         73.6200   22.8910   47.8950 N.3   123  HIS123     -0.1241
     86  CA        74.0190   23.0290   49.2910 C.3   123  HIS123      0.1621
     87  C         74.9330   24.2230   49.5260 C.2   123  HIS123      0.2264
     88  O         75.7440   24.5780   48.6710 O.2   123  HIS123     -0.2867
     89  CB        74.6960   21.7520   49.7700 C.3   123  HIS123      0.0745
     90  CG        73.7290   20.6820   50.1570 C.ar  123  HIS123      0.0817
     91  ND1       74.0620   19.3430   50.1690 N.ar  123  HIS123     -0.2268
     92  CD2       72.4450   20.7490   50.5800 C.ar  123  HIS123      0.1154
     93  CE1       73.0280   18.6360   50.5830 C.ar  123  HIS123      0.1986
     94  NE2       72.0320   19.4660   50.8400 N.ar  123  HIS123     -0.2212
     95  N         73.3330   28.4890   57.3590 N.3   129  ALA129     -0.1231
     96  CA        72.4080   28.6340   56.2360 C.3   129  ALA129      0.1694
     97  C         71.4010   27.4950   56.1990 C.2   129  ALA129      0.2591
     98  O         71.6840   26.3910   56.6560 O.2   129  ALA129     -0.2718
     99  CB        73.1750   28.6830   54.9200 C.3   129  ALA129      0.0304
    100  N         70.2230   27.7540   55.6480 N.am  130  LEU130     -0.1980
    101  CA        69.2160   26.7060   55.5670 C.3   130  LEU130      0.1596
    102  C         69.6790   25.5860   54.6350 C.2   130  LEU130      0.2287
    103  O         69.4480   24.4100   54.9090 O.2   130  LEU130     -0.2864
    104  CB        67.8860   27.2790   55.0640 C.3   130  LEU130      0.0297
    105  CG        66.7850   26.2400   54.8060 C.3   130  LEU130      0.0022
    106  CD1       66.3640   25.6280   56.1240 C.3   130  LEU130      0.0001
    107  CD2       65.5900   26.8870   54.1240 C.3   130  LEU130      0.0001
    108  N         72.5340   24.4290   54.2060 N.3   132  TYR132     -0.1228
    109  CA        73.7170   23.7190   54.6760 C.3   132  TYR132      0.1721
    110  C         73.3580   22.2260   54.6250 C.2   132  TYR132      0.2437
    111  O         72.2260   21.8460   54.9240 O.2   132  TYR132     -0.2733
    112  CB        74.0400   24.1290   56.1100 C.3   132  TYR132      0.0547
    113  CG        75.4190   23.7130   56.5740 C.ar  132  TYR132     -0.0200
    114  CD1       76.5600   24.2190   55.9590 C.ar  132  TYR132     -0.0009
    115  CD2       75.5820   22.8210   57.6310 C.ar  132  TYR132     -0.0009
    116  CE1       77.8390   23.8510   56.3880 C.ar  132  TYR132      0.0417
    117  CE2       76.8540   22.4410   58.0680 C.ar  132  TYR132      0.0417
    118  CZ        77.9750   22.9580   57.4430 C.ar  132  TYR132      0.1957
    119  OH        79.2250   22.5640   57.8720 O.3   132  TYR132     -0.2866
    120  N         74.3170   21.3610   54.2590 N.am  133  PRO133     -0.2718
    121  CA        74.0710   19.9140   54.1690 C.3   133  PRO133      0.1535
    122  C         73.7510   19.1590   55.4650 C.2   133  PRO133      0.2598
    123  O         73.1800   18.0640   55.4220 O.2   133  PRO133     -0.2715
    124  CB        75.3370   19.3890   53.4840 C.3   133  PRO133      0.0310
    125  CG        76.3910   20.3610   53.9200 C.3   133  PRO133      0.0237
    126  CD        75.6910   21.6940   53.8430 C.3   133  PRO133      0.0939
    127  N         74.0990   19.7430   56.6080 N.am  134  MET134     -0.1964
    128  CA        73.8680   19.0960   57.8970 C.3   134  MET134      0.1736
    129  C         72.6930   19.6940   58.6570 C.2   134  MET134      0.2616
    130  O         72.5560   20.9100   58.7440 O.2   134  MET134     -0.2715
    131  CB        75.1200   19.1910   58.7740 C.3   134  MET134      0.0427
    132  CG        74.9480   18.5240   60.1340 C.3   134  MET134      0.0599
    133  SD        76.2580   18.8940   61.3300 S.3   134  MET134     -0.1393
    134  CE        75.4400   20.0860   62.4090 C.3   134  MET134      0.0692
    135  N         71.8590   18.8290   59.2240 N.am  135  TYR135     -0.1960
    136  CA        70.6870   19.2640   59.9750 C.3   135  TYR135      0.1771
    137  C         71.0630   19.6080   61.4000 C.2   135  TYR135      0.2619
    138  O         71.8630   18.9150   62.0100 O.2   135  TYR135     -0.2715
    139  CB        69.6380   18.1530   60.0310 C.3   135  TYR135      0.0574
    140  CG        68.4260   18.5160   60.8660 C.ar  135  TYR135     -0.0198
    141  CD1       67.3640   19.2220   60.3100 C.ar  135  TYR135     -0.0009
    142  CD2       68.3620   18.1930   62.2210 C.ar  135  TYR135     -0.0009
    143  CE1       66.2580   19.6050   61.0830 C.ar  135  TYR135      0.0417
    144  CE2       67.2640   18.5720   63.0090 C.ar  135  TYR135      0.0417
    145  CZ        66.2170   19.2790   62.4310 C.ar  135  TYR135      0.1957
    146  OH        65.1400   19.6800   63.1920 O.3   135  TYR135     -0.2866
    147  N         70.4610   20.6620   61.9320 N.am  136  ARG136     -0.1977
    148  CA        70.7090   21.0890   63.2990 C.3   136  ARG136      0.1597
    149  C         69.5960   22.0710   63.6540 C.2   136  ARG136      0.2287
    150  O         69.5420   23.1680   63.1110 O.2   136  ARG136     -0.2864
    151  CB        72.0840   21.7580   63.3970 C.3   136  ARG136      0.0334
    152  CG        72.4950   22.1780   64.7920 C.3   136  ARG136      0.0492
    153  CD        73.9840   22.4860   64.8370 C.3   136  ARG136      0.2205
    154  NE        74.3620   23.5540   63.9150 N.pl3 136  ARG136     -0.0865
    155  CZ        74.0170   24.8290   64.0600 C.cat 136  ARG136      0.5346
    156  NH1       73.2820   25.2100   65.0960 N.pl3 136  ARG136      0.1354
    157  NH2       74.4080   25.7260   63.1650 N.pl3 136  ARG136      0.1354
    158  N         67.5080   24.9140   65.2860 N.3   138  THR138     -0.1218
    159  CA        67.8060   26.1900   65.9300 C.3   138  THR138      0.1862
    160  C         66.5890   27.0910   65.7590 C.2   138  THR138      0.2287
    161  O         65.7930   26.9050   64.8350 O.2   138  THR138     -0.2866
    162  CB        69.0240   26.9110   65.2930 C.3   138  THR138      0.1770
    163  OG1       68.7100   27.2890   63.9460 O.3   138  THR138     -0.2211
    164  CG2       70.2610   26.0120   65.3070 C.3   138  THR138      0.0375
    165  N         64.8190   31.0120   59.4190 N.3   142  PRO142     -0.2116
    166  CA        65.5540   29.9550   58.7140 C.3   142  PRO142      0.1372
    167  C         66.4500   30.4480   57.5800 C.2   142  PRO142      0.2244
    168  O         67.5340   29.9090   57.3460 O.2   142  PRO142     -0.2868
    169  CB        64.4370   29.0450   58.2080 C.3   142  PRO142      0.0268
    170  CG        63.3800   29.1960   59.2890 C.3   142  PRO142      0.0207
    171  CD        63.3830   30.6900   59.5040 C.3   142  PRO142      0.0892
@<TRIPOS>BOND
     1    78    77    2
     2    39    38    2
     3    38    37    1
     4    77    76    1
     5    76    79    1
     6    76    75    1
     7    37    40    1
     8    37    36    1
     9    79    80    1
    10    36    28   am
    11    81    80   ar
    12    81    83   ar
    13    35    33   ar
    14    35    34   ar
    15    33    31   ar
    16    34    32   ar
    17    80    82   ar
    18    31    32   ar
    19    31    30    1
    20    85    86    1
    21    28    29    2
    22    28    27    1
    23    69    68    2
    24    83    84   ar
    25    30    27    1
    26    88    87    2
    27    82    84   ar
    28    27    26    1
    29    86    87    1
    30    86    89    1
    31    68    67    1
    32    89    90    1
    33    90    91   ar
    34    90    92   ar
    35    91    93   ar
    36    74    72   am
    37    26    23   am
    38    67    70    1
    39    67    66    1
    40    59    58    2
    41    92    94   ar
    42    93    94   ar
    43    12    10    1
    44    70    71    1
    45    23    24    2
    46    23    22    1
    47    72    71    1
    48    72    73    2
    49    58    66   am
    50    58    57    1
    51    10    11    1
    52    10     9    1
    53    65    63   ar
    54    65    64   ar
    55    63    61   ar
    56    22    25    1
    57    22    21    1
    58    57    56    1
    59    57    60    1
    60    64    62   ar
    61     9     6    1
    62    61    62   ar
    63    61    60    1
    64   124   125    1
    65   124   121    1
    66    21    15   am
    67   126   125    1
    68   126   120    1
    69   107   105    1
    70   121   120    1
    71   121   122    1
    72   108   109    1
    73   120   110   am
    74    52    51    2
    75     6     7    1
    76     6     5    1
    77   110   109    1
    78   110   111    2
    79   102   103    2
    80   102   101    1
    81   109   112    1
    82   105   104    1
    83   105   106    1
    84    15    16    2
    85    15    14    1
    86    99    96    1
    87   104   101    1
    88     7    13   am
    89     7     8    2
    90    13    14    1
    91     5     3   am
    92    51    50    1
    93   123   122    2
    94   122   127   am
    95   101   100    1
    96   100    97   am
    97    14    17    1
    98   114   116   ar
    99   114   113   ar
   100    54    53    1
   101   112   113    1
   102    97    96    1
   103    97    98    2
   104    96    95    1
   105   116   118   ar
   106     3     4    2
   107     3     2    1
   108    44    43    2
   109   113   115   ar
   110   127   128    1
   111    50    53    1
   112    50    49    1
   113    17    18    1
   114    53    55    1
   115     2     1    1
   116   168   167    2
   117   118   119    1
   118   118   117   ar
   119    43    49   am
   120    43    42    1
   121   167   166    1
   122   115   117   ar
   123    18    19    1
   124    18    20    1
   125   128   129    1
   126   128   131    1
   127   169   166    1
   128   169   170    1
   129    42    41    1
   130    42    45    1
   131   129   130    2
   132   129   135   am
   133   166   165    1
   134   131   132    1
   135   135   136    1
   136   170   171    1
   137   165   171    1
   138    45    46    1
   139   136   139    1
   140   136   137    1
   141   139   140    1
   142   132   133    1
   143    48    46    1
   144   141   140   ar
   145   141   143   ar
   146   140   142   ar
   147    46    47    1
   148   143   145   ar
   149   133   134    1
   150   137   147   am
   151   137   138    2
   152   147   148    1
   153   142   144   ar
   154   145   144   ar
   155   145   146    1
   156   150   149    2
   157   157   155    1
   158   148   151    1
   159   148   149    1
   160   151   152    1
   161   154   155    2
   162   154   153    1
   163   163   162    1
   164   155   156    1
   165   152   153    1
   166   161   160    2
   167   158   159    1
   168   162   164    1
   169   162   159    1
   170   160   159    1
