@<TRIPOS>MOLECULE
tmp/2ow1A00.pdb
 159 159 0 0 0
SMALL
GASTEIGER

@<TRIPOS>ATOM
      1  N         26.9870   15.6660   56.6630 N.3    77  GLY77      -0.1210
      2  CA        26.6470   16.1400   55.3350 C.3    77  GLY77       0.1956
      3  C         27.2460   15.2040   54.3040 C.2    77  GLY77       0.2612
      4  O         27.0790   13.9890   54.3950 O.2    77  GLY77      -0.2717
      5  N         27.9500   15.7610   53.3250 N.am   78  LEU78      -0.1965
      6  CA        28.5810   14.9480   52.2920 C.3    78  LEU78       0.1728
      7  C         29.6720   14.0690   52.9170 C.2    78  LEU78       0.2616
      8  O         30.6110   14.5740   53.5300 O.2    78  LEU78      -0.2715
      9  CB        29.1920   15.8520   51.2170 C.3    78  LEU78       0.0311
     10  CG        28.2360   16.8230   50.5200 C.3    78  LEU78       0.0022
     11  CD1       29.0130   17.6440   49.4890 C.3    78  LEU78       0.0001
     12  CD2       27.1040   16.0430   49.8430 C.3    78  LEU78       0.0001
     13  N         29.5480   12.7540   52.7550 N.am   79  LEU79      -0.1963
     14  CA        30.5140   11.8220   53.3220 C.3    79  LEU79       0.1728
     15  C         31.6060   11.4370   52.3280 C.2    79  LEU79       0.2616
     16  O         32.7570   11.1990   52.7080 O.2    79  LEU79      -0.2715
     17  CB        29.8040   10.5520   53.7930 C.3    79  LEU79       0.0311
     18  CG        28.6210   10.7140   54.7530 C.3    79  LEU79       0.0022
     19  CD1       28.1400    9.3360   55.1720 C.3    79  LEU79       0.0001
     20  CD2       29.0330   11.5280   55.9820 C.3    79  LEU79       0.0001
     21  N         31.2330   11.3800   51.0570 N.am   80  ALA80      -0.1963
     22  CA        32.1550   11.0020   49.9980 C.3    80  ALA80       0.1728
     23  C         31.4430   11.0330   48.6500 C.2    80  ALA80       0.2616
     24  O         30.2150   11.1020   48.5850 O.2    80  ALA80      -0.2715
     25  CB        32.6830    9.5960   50.2590 C.3    80  ALA80       0.0334
     26  N         32.2290   10.9730   47.5790 N.am   81  HIS81      -0.1973
     27  CA        31.6990   10.9580   46.2250 C.3    81  HIS81       0.1656
     28  C         32.7140   10.2560   45.3220 C.2    81  HIS81       0.2291
     29  O         33.8800   10.1210   45.6830 O.2    81  HIS81      -0.2864
     30  CB        31.4010   12.3880   45.7400 C.3    81  HIS81       0.0771
     31  CG        32.5720   13.3190   45.8060 C.ar   81  HIS81       0.0820
     32  ND1       32.4690   14.6060   46.2910 N.ar   81  HIS81      -0.2267
     33  CD2       33.8600   13.1680   45.4150 C.ar   81  HIS81       0.1154
     34  CE1       33.6430   15.2070   46.1940 C.ar   81  HIS81       0.1986
     35  NE2       34.5040   14.3560   45.6660 N.ar   81  HIS81      -0.2212
     36  N         31.2690    0.2160   54.2490 N.3   113  LEU113     -0.1231
     37  CA        30.0250    0.4180   53.5170 C.3   113  LEU113      0.1693
     38  C         30.0770    1.6350   52.6040 C.2   113  LEU113      0.2591
     39  O         29.6300    1.5730   51.4600 O.2   113  LEU113     -0.2718
     40  CB        28.8430    0.5530   54.4840 C.3   113  LEU113      0.0284
     41  CG        28.5790   -0.6520   55.3990 C.3   113  LEU113      0.0019
     42  CD1       27.3100   -0.3960   56.2160 C.3   113  LEU113      0.0001
     43  CD2       28.4210   -1.9140   54.5580 C.3   113  LEU113      0.0001
     44  N         30.6110    2.7450   53.0970 N.am  114  VAL114     -0.1980
     45  CA        30.6860    3.9320   52.2600 C.3   114  VAL114      0.1595
     46  C         31.6140    3.6690   51.0680 C.2   114  VAL114      0.2287
     47  O         31.2990    4.0500   49.9410 O.2   114  VAL114     -0.2864
     48  CB        31.1610    5.1650   53.0670 C.3   114  VAL114      0.0276
     49  CG1       31.4280    6.3440   52.1240 C.3   114  VAL114      0.0022
     50  CG2       30.0840    5.5610   54.0740 C.3   114  VAL114      0.0022
     51  N         29.9260    1.5460   48.4310 N.3   117  HIS117     -0.1226
     52  CA        28.9540    2.3760   47.7130 C.3   117  HIS117      0.1752
     53  C         29.6700    3.2090   46.6430 C.2   117  HIS117      0.2595
     54  O         29.2270    3.2670   45.4910 O.2   117  HIS117     -0.2718
     55  CB        28.2330    3.3030   48.7100 C.3   117  HIS117      0.0759
     56  CG        27.3350    4.3240   48.0740 C.ar  117  HIS117      0.0818
     57  ND1       25.9670    4.3210   48.2460 N.ar  117  HIS117     -0.2268
     58  CD2       27.6150    5.4210   47.3280 C.ar  117  HIS117      0.1154
     59  CE1       25.4430    5.3720   47.6390 C.ar  117  HIS117      0.1986
     60  NE2       26.4220    6.0560   47.0750 N.ar  117  HIS117     -0.2212
     61  N         30.7630    3.8520   47.0400 N.am  118  GLN118     -0.1979
     62  CA        31.5620    4.6900   46.1440 C.3   118  GLN118      0.1601
     63  C         32.1700    3.8810   44.9930 C.2   118  GLN118      0.2287
     64  O         32.2600    4.3700   43.8690 O.2   118  GLN118     -0.2864
     65  CB        32.6940    5.3830   46.9160 C.3   118  GLN118      0.0394
     66  CG        32.2500    6.3960   47.9690 C.3   118  GLN118      0.0908
     67  CD        31.2930    7.4340   47.4140 C.2   118  GLN118      0.2608
     68  OE1       31.5490    8.0360   46.3690 O.2   118  GLN118     -0.2717
     69  NE2       30.1780    7.6510   48.1120 N.am  118  GLN118     -0.0878
     70  N         29.7490    3.5290   42.2250 N.3   121  HIS121     -0.1241
     71  CA        29.7550    4.6820   41.3240 C.3   121  HIS121      0.1621
     72  C         30.9590    4.5950   40.3770 C.2   121  HIS121      0.2264
     73  O         30.8220    4.8020   39.1720 O.2   121  HIS121     -0.2867
     74  CB        29.8680    6.0040   42.1020 C.3   121  HIS121      0.0745
     75  CG        28.6330    6.3950   42.8570 C.ar  121  HIS121      0.0817
     76  ND1       27.3800    6.4190   42.2830 N.ar  121  HIS121     -0.2268
     77  CD2       28.4780    6.8770   44.1150 C.ar  121  HIS121      0.1154
     78  CE1       26.5080    6.9000   43.1520 C.ar  121  HIS121      0.1986
     79  NE2       27.1490    7.1870   44.2710 N.ar  121  HIS121     -0.2212
     80  N         22.6610    5.9710   41.6120 N.3   127  HIS127     -0.1241
     81  CA        21.9590    5.7500   42.8660 C.3   127  HIS127      0.1621
     82  C         20.7200    4.8970   42.6620 C.2   127  HIS127      0.2264
     83  O         20.0980    4.9410   41.6040 O.2   127  HIS127     -0.2867
     84  CB        21.5630    7.0820   43.4920 C.3   127  HIS127      0.0745
     85  CG        22.6830    7.7520   44.2190 C.ar  127  HIS127      0.0817
     86  ND1       22.8410    9.1200   44.2500 N.ar  127  HIS127     -0.2268
     87  CD2       23.7030    7.2380   44.9450 C.ar  127  HIS127      0.1154
     88  CE1       23.9130    9.4190   44.9620 C.ar  127  HIS127      0.1986
     89  NE2       24.4530    8.2950   45.3930 N.ar  127  HIS127     -0.2212
     90  N         15.4790    1.7560   49.2330 N.3   131  PRO131     -0.2116
     91  CA        16.0090    2.1190   50.5560 C.3   131  PRO131      0.1372
     92  C         17.0190    1.1420   51.1610 C.2   131  PRO131      0.2244
     93  O         17.9250    1.5570   51.8870 O.2   131  PRO131     -0.2868
     94  CB        14.7480    2.2340   51.4090 C.3   131  PRO131      0.0268
     95  CG        13.7310    2.7310   50.4280 C.3   131  PRO131      0.0207
     96  CD        14.0080    1.8550   49.2150 C.3   131  PRO131      0.0892
     97  N         19.0030   -0.9530   49.3390 N.3   133  ALA133     -0.1231
     98  CA        20.1160   -1.1840   48.4360 C.3   133  ALA133      0.1694
     99  C         21.3390   -0.3970   48.8920 C.2   133  ALA133      0.2591
    100  O         21.2140    0.6840   49.4810 O.2   133  ALA133     -0.2718
    101  CB        19.7370   -0.7760   47.0310 C.3   133  ALA133      0.0304
    102  N         22.5200   -0.9480   48.6280 N.am  134  LEU134     -0.1980
    103  CA        23.7600   -0.2810   48.9970 C.3   134  LEU134      0.1596
    104  C         23.8800    1.0380   48.2400 C.2   134  LEU134      0.2287
    105  O         24.4220    2.0080   48.7650 O.2   134  LEU134     -0.2864
    106  CB        24.9640   -1.1710   48.6710 C.3   134  LEU134      0.0297
    107  CG        26.3650   -0.5520   48.8390 C.3   134  LEU134      0.0022
    108  CD1       26.6080   -0.1960   50.2950 C.3   134  LEU134      0.0001
    109  CD2       27.4280   -1.5460   48.3560 C.3   134  LEU134      0.0001
    110  N         21.7180    3.2050   47.6720 N.3   136  TYR136     -0.1228
    111  CA        20.7460    4.1960   48.0970 C.3   136  TYR136      0.1721
    112  C         21.6070    5.4000   48.4950 C.2   136  TYR136      0.2437
    113  O         22.6670    5.2280   49.0880 O.2   136  TYR136     -0.2733
    114  CB        19.9570    3.6720   49.2880 C.3   136  TYR136      0.0547
    115  CG        18.7530    4.5080   49.6110 C.ar  136  TYR136     -0.0200
    116  CD1       17.7560    4.7200   48.6590 C.ar  136  TYR136     -0.0009
    117  CD2       18.6110    5.1040   50.8620 C.ar  136  TYR136     -0.0009
    118  CE1       16.6520    5.5070   48.9450 C.ar  136  TYR136      0.0417
    119  CE2       17.5100    5.8910   51.1580 C.ar  136  TYR136      0.0417
    120  CZ        16.5370    6.0910   50.2000 C.ar  136  TYR136      0.1957
    121  OH        15.4530    6.8760   50.4950 O.3   136  TYR136     -0.2866
    122  N         21.1720    6.6290   48.1590 N.am  137  PRO137     -0.2718
    123  CA        21.9140    7.8610   48.4700 C.3   137  PRO137      0.1535
    124  C         21.9990    8.3090   49.9310 C.2   137  PRO137      0.2598
    125  O         22.7120    9.2630   50.2430 O.2   137  PRO137     -0.2715
    126  CB        21.2300    8.9020   47.5880 C.3   137  PRO137      0.0310
    127  CG        19.8080    8.4180   47.5640 C.3   137  PRO137      0.0237
    128  CD        19.9600    6.9310   47.3710 C.3   137  PRO137      0.0939
    129  N         21.2900    7.6280   50.8240 N.am  138  MET138     -0.1964
    130  CA        21.3100    8.0010   52.2360 C.3   138  MET138      0.1736
    131  C         22.0090    6.9360   53.0730 C.2   138  MET138      0.2616
    132  O         21.7150    5.7460   52.9550 O.2   138  MET138     -0.2715
    133  CB        19.8760    8.2130   52.7480 C.3   138  MET138      0.0427
    134  CG        19.7670    8.8570   54.1280 C.3   138  MET138      0.0599
    135  SD        19.0410    7.7920   55.4090 S.3   138  MET138     -0.1393
    136  CE        17.3900    7.5750   54.7770 C.3   138  MET138      0.0692
    137  N         22.9350    7.3750   53.9180 N.am  139  TYR139     -0.1960
    138  CA        23.6840    6.4700   54.7770 C.3   139  TYR139      0.1771
    139  C         22.8630    5.9320   55.9380 C.2   139  TYR139      0.2619
    140  O         22.0140    6.6180   56.4920 O.2   139  TYR139     -0.2715
    141  CB        24.9130    7.1690   55.3610 C.3   139  TYR139      0.0574
    142  CG        25.7340    6.2540   56.2390 C.ar  139  TYR139     -0.0198
    143  CD1       26.7180    5.4350   55.6890 C.ar  139  TYR139     -0.0009
    144  CD2       25.4850    6.1580   57.6100 C.ar  139  TYR139     -0.0009
    145  CE1       27.4350    4.5400   56.4740 C.ar  139  TYR139      0.0417
    146  CE2       26.1930    5.2650   58.4070 C.ar  139  TYR139      0.0417
    147  CZ        27.1690    4.4560   57.8290 C.ar  139  TYR139      0.1957
    148  OH        27.8620    3.5520   58.6030 O.3   139  TYR139     -0.2866
    149  N         23.1490    4.6930   56.3070 N.am  140  ARG140     -0.1977
    150  CA        22.5000    4.0190   57.4210 C.3   140  ARG140      0.1597
    151  C         23.2820    2.7330   57.6240 C.2   140  ARG140      0.2287
    152  O         23.5570    2.0050   56.6670 O.2   140  ARG140     -0.2864
    153  CB        21.0300    3.7080   57.1060 C.3   140  ARG140      0.0334
    154  CG        20.0380    4.6770   57.7420 C.3   140  ARG140      0.0492
    155  CD        18.6020    4.2680   57.4540 C.3   140  ARG140      0.2205
    156  NE        18.3220    2.9050   57.8970 N.pl3 140  ARG140     -0.0865
    157  CZ        18.3120    2.5150   59.1680 C.cat 140  ARG140      0.5346
    158  NH1       18.5680    3.3850   60.1360 N.pl3 140  ARG140      0.1354
    159  NH2       18.0510    1.2500   59.4730 N.pl3 140  ARG140      0.1354
@<TRIPOS>BOND
     1    73    72    2
     2    72    71    1
     3    71    74    1
     4    71    70    1
     5    83    82    2
     6    80    81    1
     7    74    75    1
     8    76    75   ar
     9    76    78   ar
    10    82    81    1
    11    75    77   ar
    12    81    84    1
    13    78    79   ar
    14    84    85    1
    15    64    63    2
    16    77    79   ar
    17    85    86   ar
    18    85    87   ar
    19    86    88   ar
    20    87    89   ar
    21    88    89   ar
    22    63    62    1
    23    28    29    2
    24    28    27    1
    25    33    35   ar
    26    33    31   ar
    27    54    53    2
    28    35    34   ar
    29    30    31    1
    30    30    27    1
    31    31    32   ar
    32    62    65    1
    33    62    61    1
    34    34    32   ar
    35    27    26    1
    36    68    67    2
    37    53    61   am
    38    53    52    1
    39    65    66    1
    40   101    98    1
    41    60    58   ar
    42    60    59   ar
    43    58    56   ar
    44   128   127    1
    45   128   122    1
    46    67    66    1
    47    67    69   am
    48   127   126    1
    49    26    23   am
    50   126   123    1
    51    59    57   ar
    52   110   111    1
    53    52    51    1
    54    52    55    1
    55    56    57   ar
    56    56    55    1
    57   111   112    1
    58   111   114    1
    59   122   123    1
    60   122   112   am
    61   104   105    2
    62   104   103    1
    63   109   107    1
    64    98    99    1
    65    98    97    1
    66   123   124    1
    67   112   113    2
    68    24    23    2
    69   102    99   am
    70   102   103    1
    71    23    22    1
    72   116   118   ar
    73   116   115   ar
    74   106   107    1
    75   106   103    1
    76   107   108    1
    77    99   100    2
    78   118   120   ar
    79    96    90    1
    80    96    95    1
    81    90    91    1
    82   114   115    1
    83    11    10    1
    84   115   117   ar
    85    12    10    1
    86   124   125    2
    87   124   129   am
    88    47    46    2
    89    22    25    1
    90    22    21    1
    91   120   121    1
    92   120   119   ar
    93    95    94    1
    94    10     9    1
    95    91    92    1
    96    91    94    1
    97   129   130    1
    98   117   119   ar
    99    21    15   am
   100    46    45    1
   101    92    93    2
   102     9     6    1
   103    39    38    2
   104    49    48    1
   105   130   133    1
   106   130   131    1
   107    45    48    1
   108    45    44    1
   109     6     7    1
   110     6     5    1
   111    15    16    2
   112    15    14    1
   113    38    44   am
   114    38    37    1
   115   133   134    1
   116    13     7   am
   117    13    14    1
   118     7     8    2
   119   132   131    2
   120    48    50    1
   121   131   137   am
   122    14    17    1
   123     5     3   am
   124    37    36    1
   125    37    40    1
   126    17    18    1
   127   137   138    1
   128   134   135    1
   129     3     4    2
   130     3     2    1
   131    40    41    1
   132    43    41    1
   133    18    19    1
   134    18    20    1
   135   136   135    1
   136   138   141    1
   137   138   139    1
   138     2     1    1
   139   141   142    1
   140    41    42    1
   141   143   142   ar
   142   143   145   ar
   143   139   149   am
   144   139   140    2
   145   142   144   ar
   146   149   150    1
   147   145   147   ar
   148   152   151    2
   149   153   150    1
   150   153   154    1
   151   150   151    1
   152   155   154    1
   153   155   156    1
   154   144   146   ar
   155   147   146   ar
   156   147   148    1
   157   156   157    2
   158   157   159    1
   159   157   158    1
