@<TRIPOS>MOLECULE
tmp/2ow2A00.pdb
 152 152 0 0 0
SMALL
GASTEIGER

@<TRIPOS>ATOM
      1  N         26.8920   15.6270   56.6780 N.3    74  GLY74      -0.1210
      2  CA        26.6020   16.1260   55.3490 C.3    74  GLY74       0.1956
      3  C         27.2660   15.2250   54.3370 C.2    74  GLY74       0.2612
      4  O         27.3160   14.0160   54.5490 O.2    74  GLY74      -0.2717
      5  N         27.7730   15.8010   53.2480 N.am   75  LEU75      -0.1965
      6  CA        28.4540   15.0270   52.2110 C.3    75  LEU75       0.1728
      7  C         29.5030   14.1430   52.8950 C.2    75  LEU75       0.2616
      8  O         30.4040   14.6340   53.5810 O.2    75  LEU75      -0.2715
      9  CB        29.1470   15.9600   51.2090 C.3    75  LEU75       0.0311
     10  CG        28.9690   15.6730   49.7110 C.3    75  LEU75       0.0022
     11  CD1       29.8570   16.6250   48.9270 C.3    75  LEU75       0.0001
     12  CD2       29.3130   14.2210   49.3780 C.3    75  LEU75       0.0001
     13  N         29.3770   12.8360   52.7130 N.am   76  LEU76      -0.1963
     14  CA        30.3050   11.8990   53.3290 C.3    76  LEU76       0.1728
     15  C         31.4240   11.5120   52.3820 C.2    76  LEU76       0.2616
     16  O         32.5630   11.3120   52.8070 O.2    76  LEU76      -0.2715
     17  CB        29.5640   10.6370   53.7580 C.3    76  LEU76       0.0311
     18  CG        28.3030   10.7970   54.6070 C.3    76  LEU76       0.0022
     19  CD1       27.7310    9.4150   54.8950 C.3    76  LEU76       0.0001
     20  CD2       28.6260   11.5360   55.9030 C.3    76  LEU76       0.0001
     21  N         31.0970   11.3920   51.0990 N.am   77  ALA77      -0.1963
     22  CA        32.0790   11.0100   50.0890 C.3    77  ALA77       0.1728
     23  C         31.4430   10.9890   48.7060 C.2    77  ALA77       0.2616
     24  O         30.2260   11.0450   48.5730 O.2    77  ALA77      -0.2715
     25  CB        32.6450    9.6290   50.4190 C.3    77  ALA77       0.0334
     26  N         32.2740   10.9060   47.6780 N.am   78  HIS78      -0.1959
     27  CA        31.7660   10.8660   46.3210 C.3    78  HIS78       0.1787
     28  C         32.7540   10.2440   45.3520 C.2    78  HIS78       0.2620
     29  O         33.9610   10.4390   45.4680 O.2    78  HIS78      -0.2715
     30  CB        31.3600   12.2720   45.8540 C.3    78  HIS78       0.0785
     31  CG        32.4580   13.2910   45.9140 C.ar   78  HIS78       0.0821
     32  ND1       32.3530   14.4520   46.6530 N.ar   78  HIS78      -0.2267
     33  CD2       33.6580   13.3530   45.2870 C.ar   78  HIS78       0.1154
     34  CE1       33.4380   15.1860   46.4760 C.ar   78  HIS78       0.1986
     35  NE2       34.2460   14.5420   45.6530 N.ar   78  HIS78      -0.2212
     36  N         32.2300    9.4870   44.3930 N.am   79  ALA79      -0.1977
     37  CA        33.0630    8.8190   43.4070 C.3    79  ALA79       0.1597
     38  C         32.6350    9.1540   41.9900 C.2    79  ALA79       0.2287
     39  O         31.4470    9.2050   41.6910 O.2    79  ALA79      -0.2864
     40  CB        33.0010    7.3180   43.6250 C.3    79  ALA79       0.0319
     41  N         31.0150    0.1010   54.3540 N.3   110  LEU110     -0.1231
     42  CA        29.7690    0.2670   53.6120 C.3   110  LEU110      0.1693
     43  C         29.7760    1.4770   52.6870 C.2   110  LEU110      0.2591
     44  O         29.2940    1.3960   51.5570 O.2   110  LEU110     -0.2718
     45  CB        28.5960    0.3880   54.5810 C.3   110  LEU110      0.0284
     46  CG        28.4130   -0.7940   55.5320 C.3   110  LEU110      0.0019
     47  CD1       27.3440   -0.4430   56.5520 C.3   110  LEU110      0.0001
     48  CD2       28.0230   -2.0420   54.7470 C.3   110  LEU110      0.0001
     49  N         30.3050    2.6030   53.1600 N.am  111  VAL111     -0.1980
     50  CA        30.3580    3.8060   52.3390 C.3   111  VAL111      0.1595
     51  C         31.2600    3.5760   51.1280 C.2   111  VAL111      0.2287
     52  O         30.9500    4.0130   50.0180 O.2   111  VAL111     -0.2864
     53  CB        30.8840    5.0110   53.1350 C.3   111  VAL111      0.0276
     54  CG1       31.0340    6.2180   52.2260 C.3   111  VAL111      0.0022
     55  CG2       29.9370    5.3290   54.2690 C.3   111  VAL111      0.0022
     56  N         29.5020    1.5130   48.4140 N.3   114  HIS114     -0.1226
     57  CA        28.5860    2.4290   47.7400 C.3   114  HIS114      0.1752
     58  C         29.3210    3.2650   46.7130 C.2   114  HIS114      0.2595
     59  O         28.9650    3.2940   45.5420 O.2   114  HIS114     -0.2718
     60  CB        27.9360    3.3820   48.7420 C.3   114  HIS114      0.0759
     61  CG        26.9430    4.3210   48.1220 C.ar  114  HIS114      0.0818
     62  ND1       25.5910    4.0490   48.0660 N.ar  114  HIS114     -0.2268
     63  CD2       27.1090    5.5180   47.5080 C.ar  114  HIS114      0.1154
     64  CE1       24.9680    5.0370   47.4480 C.ar  114  HIS114      0.1986
     65  NE2       25.8670    5.9400   47.0970 N.ar  114  HIS114     -0.2212
     66  N         30.3510    3.9610   47.1660 N.am  115  GLN115     -0.1979
     67  CA        31.1260    4.8100   46.2800 C.3   115  GLN115      0.1601
     68  C         31.7870    4.0040   45.1730 C.2   115  GLN115      0.2287
     69  O         31.8860    4.4770   44.0480 O.2   115  GLN115     -0.2864
     70  CB        32.1700    5.5920   47.0820 C.3   115  GLN115      0.0394
     71  CG        31.9110    7.0860   47.0900 C.3   115  GLN115      0.0908
     72  CD        30.5750    7.4370   47.7120 C.2   115  GLN115      0.2608
     73  OE1       30.4280    7.4240   48.9330 O.2   115  GLN115     -0.2717
     74  NE2       29.5890    7.7440   46.8750 N.am  115  GLN115     -0.0878
     75  N         29.4070    3.6460   42.3330 N.3   118  HIS118     -0.1241
     76  CA        29.3490    4.8490   41.5080 C.3   118  HIS118      0.1621
     77  C         30.5490    4.8960   40.5560 C.2   118  HIS118      0.2264
     78  O         30.4120    5.2510   39.3810 O.2   118  HIS118     -0.2867
     79  CB        29.3480    6.1020   42.3870 C.3   118  HIS118      0.0745
     80  CG        28.0470    6.3590   43.0850 C.ar  118  HIS118      0.0817
     81  ND1       26.8470    6.4340   42.4140 N.ar  118  HIS118     -0.2268
     82  CD2       27.7650    6.6000   44.3860 C.ar  118  HIS118      0.1154
     83  CE1       25.8820    6.7160   43.2700 C.ar  118  HIS118      0.1986
     84  NE2       26.4130    6.8230   44.4740 N.ar  118  HIS118     -0.2212
     85  N         22.2660    5.7530   41.6970 N.3   124  HIS124     -0.1241
     86  CA        21.5230    5.5520   42.9370 C.3   124  HIS124      0.1621
     87  C         20.2660    4.7180   42.8160 C.2   124  HIS124      0.2264
     88  O         19.4630    4.9090   41.9110 O.2   124  HIS124     -0.2867
     89  CB        21.2020    6.9030   43.5680 C.3   124  HIS124      0.0745
     90  CG        22.3150    7.4450   44.4000 C.ar  124  HIS124      0.0817
     91  ND1       22.6080    8.7870   44.4790 N.ar  124  HIS124     -0.2268
     92  CD2       23.2290    6.8160   45.1720 C.ar  124  HIS124      0.1154
     93  CE1       23.6580    8.9590   45.2630 C.ar  124  HIS124      0.1986
     94  NE2       24.0540    7.7780   45.6970 N.ar  124  HIS124     -0.2212
     95  N         22.1700   -1.0860   48.6950 N.3   131  LEU131     -0.1245
     96  CA        23.4080   -0.4090   49.0550 C.3   131  LEU131      0.1561
     97  C         23.5740    0.8860   48.2800 C.2   131  LEU131      0.2260
     98  O         24.2980    1.7860   48.7100 O.2   131  LEU131     -0.2867
     99  CB        24.6140   -1.3130   48.7830 C.3   131  LEU131      0.0270
    100  CG        26.0210   -0.7390   48.9660 C.3   131  LEU131      0.0019
    101  CD1       26.2160   -0.2850   50.3950 C.3   131  LEU131      0.0001
    102  CD2       27.0540   -1.7940   48.6040 C.3   131  LEU131      0.0001
    103  N         21.3680    3.1370   47.7940 N.3   133  TYR133     -0.1228
    104  CA        20.3850    4.1220   48.2280 C.3   133  TYR133      0.1721
    105  C         21.1980    5.3540   48.6380 C.2   133  TYR133      0.2437
    106  O         22.1500    5.2420   49.4120 O.2   133  TYR133     -0.2733
    107  CB        19.6080    3.5880   49.4330 C.3   133  TYR133      0.0547
    108  CG        18.3150    4.3220   49.7070 C.ar  133  TYR133     -0.0200
    109  CD1       17.2620    4.2850   48.7940 C.ar  133  TYR133     -0.0009
    110  CD2       18.1410    5.0490   50.8830 C.ar  133  TYR133     -0.0009
    111  CE1       16.0670    4.9530   49.0450 C.ar  133  TYR133      0.0417
    112  CE2       16.9460    5.7240   51.1470 C.ar  133  TYR133      0.0417
    113  CZ        15.9140    5.6710   50.2220 C.ar  133  TYR133      0.1957
    114  OH        14.7330    6.3340   50.4820 O.3   133  TYR133     -0.2866
    115  N         20.8380    6.5410   48.1230 N.am  134  PRO134     -0.2718
    116  CA        21.5570    7.7790   48.4450 C.3   134  PRO134      0.1535
    117  C         21.5990    8.1970   49.9170 C.2   134  PRO134      0.2598
    118  O         22.2360    9.1930   50.2620 O.2   134  PRO134     -0.2715
    119  CB        20.8560    8.8150   47.5680 C.3   134  PRO134      0.0310
    120  CG        19.4660    8.2850   47.4770 C.3   134  PRO134      0.0237
    121  CD        19.7000    6.8190   47.2320 C.3   134  PRO134      0.0939
    122  N         20.9420    7.4300   50.7800 N.am  135  MET135     -0.1964
    123  CA        20.8830    7.7270   52.2130 C.3   135  MET135      0.1736
    124  C         21.6660    6.6950   53.0340 C.2   135  MET135      0.2616
    125  O         21.3670    5.5000   52.9760 O.2   135  MET135     -0.2715
    126  CB        19.4150    7.7210   52.6570 C.3   135  MET135      0.0427
    127  CG        18.9050    8.9760   53.3610 C.3   135  MET135      0.0599
    128  SD        19.2990    9.0250   55.1230 S.3   135  MET135     -0.1393
    129  CE        18.4120    7.5840   55.7360 C.3   135  MET135      0.0692
    130  N         22.6530    7.1500   53.8040 N.am  136  TYR136     -0.1960
    131  CA        23.4470    6.2480   54.6410 C.3   136  TYR136      0.1771
    132  C         22.6100    5.7080   55.7900 C.2   136  TYR136      0.2619
    133  O         21.8460    6.4380   56.4140 O.2   136  TYR136     -0.2715
    134  CB        24.6700    6.9580   55.2360 C.3   136  TYR136      0.0574
    135  CG        25.4360    6.0990   56.2220 C.ar  136  TYR136     -0.0198
    136  CD1       26.3030    5.1020   55.7800 C.ar  136  TYR136     -0.0009
    137  CD2       25.2520    6.2440   57.5980 C.ar  136  TYR136     -0.0009
    138  CE1       26.9670    4.2690   56.6840 C.ar  136  TYR136      0.0417
    139  CE2       25.9070    5.4180   58.5080 C.ar  136  TYR136      0.0417
    140  CZ        26.7630    4.4310   58.0440 C.ar  136  TYR136      0.1957
    141  OH        27.4090    3.5980   58.9330 O.3   136  TYR136     -0.2866
    142  N         22.7680    4.4240   56.0720 N.am  137  ARG137     -0.1977
    143  CA        22.0270    3.7830   57.1520 C.3   137  ARG137      0.1597
    144  C         22.7350    2.4590   57.4100 C.2   137  ARG137      0.2287
    145  O         22.6960    1.5580   56.5760 O.2   137  ARG137     -0.2864
    146  CB        20.5680    3.5480   56.7240 C.3   137  ARG137      0.0334
    147  CG        19.5370    3.6890   57.8510 C.3   137  ARG137      0.0492
    148  CD        18.0830    3.5260   57.3840 C.3   137  ARG137      0.2205
    149  NE        17.7040    4.4670   56.3310 N.pl3 137  ARG137     -0.0865
    150  CZ        17.9050    4.2620   55.0330 C.cat 137  ARG137      0.5346
    151  NH1       18.4860    3.1440   54.6170 N.pl3 137  ARG137      0.1354
    152  NH2       17.5190    5.1710   54.1500 N.pl3 137  ARG137      0.1354
@<TRIPOS>BOND
     1    78    77    2
     2    77    76    1
     3    76    75    1
     4    76    79    1
     5    39    38    2
     6    85    86    1
     7    88    87    2
     8    38    37    1
     9    79    80    1
    10    81    80   ar
    11    81    83   ar
    12    87    86    1
    13    86    89    1
    14    80    82   ar
    15    83    84   ar
    16    37    40    1
    17    37    36    1
    18    89    90    1
    19    69    68    2
    20    82    84   ar
    21    36    28   am
    22    90    91   ar
    23    90    92   ar
    24    91    93   ar
    25    92    94   ar
    26    68    67    1
    27    93    94   ar
    28    33    35   ar
    29    33    31   ar
    30    28    29    2
    31    28    27    1
    32    59    58    2
    33    35    34   ar
    34    30    31    1
    35    30    27    1
    36    31    32   ar
    37    67    70    1
    38    67    66    1
    39    27    26    1
    40    34    32   ar
    41    58    66   am
    42    58    57    1
    43    74    72   am
    44    70    71    1
    45    71    72    1
    46    65    64   ar
    47    65    63   ar
    48   121   120    1
    49   121   115    1
    50    64    62   ar
    51   120   119    1
    52    63    61   ar
    53   119   116    1
    54    26    23   am
    55    72    73    2
    56    57    56    1
    57    57    60    1
    58   103   104    1
    59    62    61   ar
    60    61    60    1
    61   115   116    1
    62   115   105   am
    63   104   105    1
    64   104   107    1
    65    97    98    2
    66    97    96    1
    67   116   117    1
    68    24    23    2
    69   102   100    1
    70   105   106    2
    71    95    96    1
    72    23    22    1
    73    99   100    1
    74    99    96    1
    75   109   111   ar
    76   109   108   ar
    77    11    10    1
    78   100   101    1
    79   111   113   ar
    80    12    10    1
    81   107   108    1
    82   108   110   ar
    83    10     9    1
    84   117   118    2
    85   117   122   am
    86    52    51    2
    87    22    25    1
    88    22    21    1
    89   113   114    1
    90   113   112   ar
    91   122   123    1
    92   110   112   ar
    93    21    15   am
    94    51    50    1
    95     9     6    1
    96    44    43    2
    97     6     7    1
    98     6     5    1
    99   123   126    1
   100   123   124    1
   101    54    53    1
   102    50    53    1
   103    50    49    1
   104    15    16    2
   105    15    14    1
   106   126   127    1
   107    43    49   am
   108    43    42    1
   109    13     7   am
   110    13    14    1
   111     7     8    2
   112   125   124    2
   113   124   130   am
   114    53    55    1
   115     5     3   am
   116    14    17    1
   117   127   128    1
   118    42    41    1
   119    42    45    1
   120    17    18    1
   121   130   131    1
   122   152   150    1
   123     3     4    2
   124     3     2    1
   125    45    46    1
   126    18    19    1
   127    18    20    1
   128   151   150    1
   129   131   134    1
   130   131   132    1
   131    48    46    1
   132   150   149    2
   133   128   129    1
   134   134   135    1
   135     2     1    1
   136    46    47    1
   137   136   135   ar
   138   136   138   ar
   139   132   142   am
   140   132   133    2
   141   142   143    1
   142   135   137   ar
   143   149   148    1
   144   145   144    2
   145   138   140   ar
   146   146   143    1
   147   146   147    1
   148   143   144    1
   149   148   147    1
   150   137   139   ar
   151   140   139   ar
   152   140   141    1
