@<TRIPOS>MOLECULE
tmp/2ow3A00.pdb
 180 170 0 0 0
SMALL
GASTEIGER

@<TRIPOS>ATOM
      1  N        -36.4570  -11.0480   70.7780 N.3    28  ILE28      -0.1231
      2  CA       -37.1210  -10.1320   69.8480 C.3    28  ILE28       0.1692
      3  C        -36.1360   -9.3280   69.0110 C.2    28  ILE28       0.2592
      4  O        -36.5090   -8.7920   67.9650 O.2    28  ILE28      -0.2718
      5  CB       -38.0860   -9.1710   70.5700 C.3    28  ILE28       0.0266
      6  CG1      -37.3390   -8.2340   71.5310 C.3    28  ILE28       0.0019
      7  CG2      -39.1700   -9.9720   71.2980 C.3    28  ILE28       0.0020
      8  CD1      -38.2440   -7.2070   72.2060 C.3    28  ILE28       0.0001
      9  N        -34.8850   -9.2540   69.4630 N.am   29  GLY29      -0.1957
     10  CA       -33.8700   -8.4460   68.7980 C.3    29  GLY29       0.1869
     11  C        -32.4610   -8.8570   69.1600 C.2    29  GLY29       0.2309
     12  O        -32.2320   -9.5090   70.1760 O.2    29  GLY29      -0.2863
     13  N        -27.4610   -2.4780   69.1270 N.3    33  PHE33      -0.1241
     14  CA       -28.0660   -2.0440   70.3920 C.3    33  PHE33       0.1605
     15  C        -27.9330   -3.0450   71.5410 C.2    33  PHE33       0.2264
     16  O        -28.0870   -2.6670   72.6980 O.2    33  PHE33      -0.2867
     17  CB       -29.5460   -1.6960   70.1900 C.3    33  PHE33       0.0534
     18  CG       -30.3330   -2.7560   69.4640 C.ar   33  PHE33      -0.0203
     19  CD1      -30.6940   -3.9410   70.1020 C.ar   33  PHE33      -0.0042
     20  CD2      -30.7160   -2.5670   68.1400 C.ar   33  PHE33      -0.0042
     21  CE1      -31.4200   -4.9190   69.4330 C.ar   33  PHE33      -0.0003
     22  CE2      -31.4420   -3.5400   67.4630 C.ar   33  PHE33      -0.0003
     23  CZ       -31.7940   -4.7200   68.1120 C.ar   33  PHE33      -0.0000
     24  N        -32.0320   -8.3520   73.1720 N.3    36  VAL36      -0.1245
     25  CA       -33.3040   -8.1050   73.8480 C.3    36  VAL36       0.1561
     26  C        -34.2560   -9.3110   73.7430 C.2    36  VAL36       0.2260
     27  O        -34.4320   -9.8890   72.6610 O.2    36  VAL36      -0.2867
     28  CB       -34.0200   -6.8570   73.2550 C.3    36  VAL36       0.0252
     29  CG1      -35.2340   -6.4870   74.0980 C.3    36  VAL36       0.0019
     30  CG2      -33.0710   -5.6660   73.1610 C.3    36  VAL36       0.0019
     31  N        -39.4150   -5.9750   78.1370 N.3    49  ALA49      -0.1245
     32  CA       -38.2390   -6.2140   77.3050 C.3    49  ALA49       0.1562
     33  C        -37.0230   -6.2730   78.2160 C.2    49  ALA49       0.2260
     34  O        -36.9190   -5.4860   79.1470 O.2    49  ALA49      -0.2867
     35  CB       -38.0800   -5.1080   76.2850 C.3    49  ALA49       0.0290
     36  N        -32.8750   -6.2840   78.2280 N.3    51  LYS51      -0.1245
     37  CA       -31.6060   -6.1150   77.5280 C.3    51  LYS51       0.1561
     38  C        -30.4880   -6.7810   78.3210 C.2    51  LYS51       0.2260
     39  O        -30.4370   -6.6560   79.5400 O.2    51  LYS51      -0.2867
     40  CB       -31.2970   -4.6360   77.2970 C.3    51  LYS51       0.0271
     41  CG       -30.1810   -4.4130   76.2890 C.3    51  LYS51       0.0035
     42  CD       -29.5760   -3.0230   76.3860 C.3    51  LYS51       0.0206
     43  CE       -28.1320   -3.0330   75.8980 C.3    51  LYS51       0.1093
     44  NZ       -27.6890   -1.7060   75.3980 N.3    51  LYS51      -0.1314
     45  N        -25.2470    3.4600   80.5720 N.3    63  GLU63      -0.1245
     46  CA       -26.6720    3.3620   80.2430 C.3    63  GLU63       0.1567
     47  C        -27.5270    3.2010   81.4930 C.2    63  GLU63       0.2260
     48  O        -28.5370    3.8850   81.6590 O.2    63  GLU63      -0.2867
     49  CB       -26.9290    2.1790   79.3060 C.3    63  GLU63       0.0388
     50  CG       -28.3810    2.0670   78.8520 C.3    63  GLU63       0.1160
     51  CD       -28.5840    1.0870   77.7060 C.2    63  GLU63       0.3649
     52  OE1      -27.7030    0.2360   77.4670 O.co2  63  GLU63      -0.2457
     53  OE2      -29.6430    1.1670   77.0470 O.co2  63  GLU63      -0.2457
     54  N        -39.3180    5.4590   77.9400 N.3    76  VAL76      -0.1245
     55  CA       -39.5630    4.0840   78.3330 C.3    76  VAL76       0.1561
     56  C        -39.0050    3.8630   79.7470 C.2    76  VAL76       0.2260
     57  O        -37.8420    4.1590   80.0190 O.2    76  VAL76      -0.2867
     58  CB       -39.0050    3.0760   77.2790 C.3    76  VAL76       0.0252
     59  CG1      -37.5330    2.7490   77.5130 C.3    76  VAL76       0.0019
     60  CG2      -39.8390    1.8140   77.2590 C.3    76  VAL76       0.0019
     61  N        -37.5390   -3.5390   81.2280 N.3    94  LEU94      -0.1231
     62  CA       -38.1160   -2.3440   80.6230 C.3    94  LEU94       0.1693
     63  C        -39.5740   -2.5690   80.2170 C.2    94  LEU94       0.2592
     64  O        -39.9680   -3.6900   79.8720 O.2    94  LEU94      -0.2718
     65  CB       -37.3150   -1.9840   79.3650 C.3    94  LEU94       0.0284
     66  CG       -35.8680   -1.4980   79.5480 C.3    94  LEU94       0.0019
     67  CD1      -34.9420   -2.0970   78.5080 C.3    94  LEU94       0.0001
     68  CD2      -35.7880    0.0260   79.5060 C.3    94  LEU94       0.0001
     69  N        -40.3610   -1.4900   80.2450 N.am   95  ASP95      -0.1960
     70  CA       -41.7370   -1.5020   79.7390 C.3    95  ASP95       0.1840
     71  C        -41.7500   -1.9540   78.2900 C.2    95  ASP95       0.2622
     72  O        -40.9040   -1.5230   77.5200 O.2    95  ASP95      -0.2715
     73  CB       -42.3450   -0.0940   79.8000 C.3    95  ASP95       0.1450
     74  CG       -43.0360    0.2050   81.1190 C.2    95  ASP95       0.3671
     75  OD1      -43.6260   -0.7160   81.7290 O.co2  95  ASP95      -0.2456
     76  OD2      -43.0190    1.3860   81.5270 O.co2  95  ASP95      -0.2456
     77  N        -42.7100   -2.8030   77.9180 N.am   96  TYR96      -0.1960
     78  CA       -42.8390   -3.2720   76.5310 C.3    96  TYR96       0.1771
     79  C        -43.8510   -2.4590   75.7130 C.2    96  TYR96       0.2619
     80  O        -44.9260   -2.1290   76.2100 O.2    96  TYR96      -0.2715
     81  CB       -43.2490   -4.7490   76.4920 C.3    96  TYR96       0.0574
     82  CG       -43.4690   -5.2300   75.0830 C.ar   96  TYR96      -0.0198
     83  CD1      -42.3920   -5.4520   74.2410 C.ar   96  TYR96      -0.0009
     84  CD2      -44.7470   -5.4140   74.5770 C.ar   96  TYR96      -0.0009
     85  CE1      -42.5740   -5.8690   72.9460 C.ar   96  TYR96       0.0417
     86  CE2      -44.9450   -5.8290   73.2710 C.ar   96  TYR96       0.0417
     87  CZ       -43.8510   -6.0610   72.4650 C.ar   96  TYR96       0.1957
     88  OH       -44.0210   -6.4750   71.1690 O.3    96  TYR96      -0.2866
     89  N        -43.5040   -2.1670   74.4570 N.am   97  VAL97      -0.1964
     90  CA       -44.4040   -1.4990   73.5060 C.3    97  VAL97       0.1712
     91  C        -44.1880   -2.1260   72.1220 C.2    97  VAL97       0.2458
     92  O        -43.0520   -2.2210   71.6690 O.2    97  VAL97      -0.2730
     93  CB       -44.1150    0.0330   73.4050 C.3    97  VAL97       0.0289
     94  CG1      -45.1610    0.7310   72.5490 C.3    97  VAL97       0.0023
     95  CG2      -44.0500    0.6880   74.7800 C.3    97  VAL97       0.0023
     96  N        -45.2690   -2.5260   71.4260 N.am   98  PRO98      -0.2727
     97  CA       -45.0850   -3.3580   70.2240 C.3    98  PRO98       0.1402
     98  C        -44.8150   -2.6230   68.8930 C.2    98  PRO98       0.2269
     99  O        -44.0930   -3.1590   68.0450 O.2    98  PRO98      -0.2865
    100  CB       -46.3980   -4.1470   70.1520 C.3    98  PRO98       0.0296
    101  CG       -47.4200   -3.2380   70.7750 C.3    98  PRO98       0.0237
    102  CD       -46.6950   -2.2450   71.6750 C.3    98  PRO98       0.0939
    103  N        -43.6910    0.9550   66.4360 N.3   100  THR100     -0.1218
    104  CA       -42.7710    2.1060   66.3320 C.3   100  THR100      0.1862
    105  C        -43.3270    3.1400   65.3480 C.2   100  THR100      0.2287
    106  O        -44.1920    2.8110   64.5410 O.2   100  THR100     -0.2866
    107  CB       -41.3760    1.6850   65.8160 C.3   100  THR100      0.1770
    108  OG1      -41.3210    1.8160   64.3910 O.3   100  THR100     -0.2211
    109  CG2      -41.0610    0.2520   66.1860 C.3   100  THR100      0.0375
    110  N        -41.4770    4.5540   62.9140 N.3   102  TYR102     -0.1227
    111  CA       -40.9010    4.1210   61.6370 C.3   102  TYR102      0.1736
    112  C        -41.8110    3.1410   60.8960 C.2   102  TYR102      0.2595
    113  O        -42.1700    3.3700   59.7370 O.2   102  TYR102     -0.2718
    114  CB       -39.5320    3.4840   61.8700 C.3   102  TYR102      0.0548
    115  CG       -38.9930    2.7280   60.6780 C.ar  102  TYR102     -0.0200
    116  CD1      -38.6400    3.3910   59.5050 C.ar  102  TYR102     -0.0009
    117  CD2      -38.8240    1.3440   60.7300 C.ar  102  TYR102     -0.0009
    118  CE1      -38.1390    2.6900   58.4080 C.ar  102  TYR102      0.0417
    119  CE2      -38.3250    0.6370   59.6460 C.ar  102  TYR102      0.0417
    120  CZ       -37.9870    1.3090   58.4870 C.ar  102  TYR102      0.1957
    121  OH       -37.4950    0.5950   57.4140 O.3   102  TYR102     -0.2866
    122  N        -42.1770    2.0540   61.5750 N.am  103  ARG103     -0.1980
    123  CA       -43.1160    1.0590   61.0360 C.3   103  ARG103      0.1597
    124  C        -44.4090    1.6830   60.4980 C.2   103  ARG103      0.2287
    125  O        -44.8740    1.3280   59.4170 O.2   103  ARG103     -0.2864
    126  CB       -43.4710    0.0220   62.1110 C.3   103  ARG103      0.0334
    127  CG       -42.5730   -1.2120   62.1300 C.3   103  ARG103      0.0492
    128  CD       -42.7420   -2.0010   63.4290 C.3   103  ARG103      0.2205
    129  NE       -42.9120   -3.4350   63.1990 N.pl3 103  ARG103     -0.0865
    130  CZ       -44.0400   -4.0130   62.7800 C.cat 103  ARG103      0.5346
    131  NH1      -45.1320   -3.2960   62.5180 N.pl3 103  ARG103      0.1354
    132  NH2      -44.0760   -5.3280   62.6110 N.pl3 103  ARG103      0.1354
    133  N        -34.1180    9.1810   65.9000 N.3   145  LYS145     -0.1245
    134  CA       -34.5560    8.7220   64.5650 C.3   145  LYS145      0.1561
    135  C        -35.8740    7.9550   64.7220 C.2   145  LYS145      0.2260
    136  O        -36.2180    7.5600   65.8270 O.2   145  LYS145     -0.2867
    137  CB       -33.4900    7.8350   63.8810 C.3   145  LYS145      0.0271
    138  CG       -33.4520    6.3770   64.3490 C.3   145  LYS145      0.0035
    139  CD       -32.1990    5.6450   63.8670 C.3   145  LYS145      0.0206
    140  CE       -32.0040    4.3160   64.6180 C.3   145  LYS145      0.1093
    141  NZ       -30.6670    3.7130   64.4090 N.3   145  LYS145     -0.1314
    142  N        -36.8700    4.8960   64.1650 N.3   147  GLN147     -0.1231
    143  CA       -36.7910    3.5410   64.7360 C.3   147  GLN147      0.1698
    144  C        -36.6530    3.5390   66.2560 C.2   147  GLN147      0.2592
    145  O        -36.9360    2.5310   66.8850 O.2   147  GLN147     -0.2718
    146  CB       -35.6280    2.7340   64.1460 C.3   147  GLN147      0.0381
    147  CG       -35.8840    2.1350   62.7710 C.3   147  GLN147      0.0905
    148  CD       -35.6400    3.1000   61.6220 C.2   147  GLN147      0.2608
    149  OE1      -35.8870    2.7590   60.4640 O.2   147  GLN147     -0.2717
    150  NE2      -35.1490    4.3050   61.9280 N.am  147  GLN147     -0.0878
    151  N        -36.1990    4.6520   66.8350 N.am  148  ASN148     -0.1974
    152  CA       -36.1120    4.8000   68.2950 C.3   148  ASN148      0.1688
    153  C        -37.2830    5.5950   68.8750 C.2   148  ASN148      0.2292
    154  O        -37.1500    6.1940   69.9410 O.2   148  ASN148     -0.2864
    155  CB       -34.7780    5.4590   68.7030 C.3   148  ASN148      0.1181
    156  CG       -33.6240    4.4640   68.8000 C.2   148  ASN148      0.2629
    157  OD1      -33.7470    3.3000   68.4220 O.2   148  ASN148     -0.2716
    158  ND2      -32.4890    4.9310   69.3090 N.am  148  ASN148     -0.0877
    159  N        -40.9150    4.5530   69.9810 N.3   150  LEU150     -0.1245
    160  CA       -41.9630    3.5580   70.2460 C.3   150  LEU150      0.1561
    161  C        -43.3260    4.2320   70.3570 C.2   150  LEU150      0.2260
    162  O        -43.4200    5.3880   70.7590 O.2   150  LEU150     -0.2867
    163  CB       -41.6740    2.7610   71.5250 C.3   150  LEU150      0.0270
    164  CG       -40.3240    2.0410   71.6350 C.3   150  LEU150      0.0019
    165  CD1      -40.2560    1.2120   72.9130 C.3   150  LEU150      0.0001
    166  CD2      -40.0450    1.1670   70.4250 C.3   150  LEU150      0.0001
    167  N        -36.7770    5.5150   73.3210 N.3   161  CYS161     -0.1221
    168  CA       -36.0330    4.4210   73.9450 C.3   161  CYS161      0.1808
    169  C        -34.6090    4.3380   73.4260 C.2   161  CYS161      0.2601
    170  O        -34.1830    5.1680   72.6320 O.2   161  CYS161     -0.2717
    171  CB       -36.7520    3.0800   73.7260 C.3   161  CYS161      0.0970
    172  SG       -36.7050    2.4530   72.0240 S.3   161  CYS161     -0.0800
    173  N        -33.8820    3.3310   73.9010 N.am  162  ASP162     -0.1973
    174  CA       -32.5080    3.0770   73.4930 C.3   162  ASP162      0.1709
    175  C        -31.6080    4.2490   73.8820 C.2   162  ASP162      0.2293
    176  O        -31.2700    5.1000   73.0480 O.2   162  ASP162     -0.2864
    177  CB       -32.4420    2.7880   71.9890 C.3   162  ASP162      0.1436
    178  CG       -31.1410    2.1300   71.5670 C.2   162  ASP162      0.3671
    179  OD1      -30.1980    2.0750   72.3810 O.co2 162  ASP162     -0.2456
    180  OD2      -31.0620    1.6770   70.4000 O.co2 162  ASP162     -0.2456
@<TRIPOS>BOND
     1   121   120    1
     2   118   120   ar
     3   118   116   ar
     4   120   119   ar
     5   125   124    2
     6   116   115   ar
     7   119   117   ar
     8   113   112    2
     9   149   148    2
    10   124   123    1
    11   115   117   ar
    12   115   114    1
    13   112   122   am
    14   112   111    1
    15   123   122    1
    16   123   126    1
    17   148   150   am
    18   148   147    1
    19   111   114    1
    20   111   110    1
    21   126   127    1
    22   127   128    1
    23   131   130    1
    24   132   130    1
    25   147   146    1
    26   130   129    2
    27   129   128    1
    28   139   138    1
    29   139   140    1
    30   137   138    1
    31   137   134    1
    32   146   143    1
    33   142   143    1
    34   108   107    1
    35   141   140    1
    36   106   105    2
    37   134   135    1
    38   134   133    1
    39   135   136    2
    40   143   144    1
    41   105   104    1
    42   107   109    1
    43   107   104    1
    44   144   151   am
    45   144   145    2
    46   104   103    1
    47   151   152    1
    48    22    23   ar
    49    22    20   ar
    50     4     3    2
    51    99    98    2
    52    23    21   ar
    53    20    18   ar
    54   152   155    1
    55   152   153    1
    56   157   156    2
    57   155   156    1
    58    10    11    1
    59    10     9    1
    60   156   158   am
    61   153   154    2
    62    98    97    1
    63     3     9   am
    64     3     2    1
    65    13    14    1
    66    11    12    2
    67    21    19   ar
    68    18    19   ar
    69    18    17    1
    70     2     5    1
    71     2     1    1
    72   159   160    1
    73   100    97    1
    74   100   101    1
    75    17    14    1
    76    97    96    1
    77   160   161    1
    78   160   163    1
    79   161   162    2
    80    14    15    1
    81   180   178   ar
    82   166   164    1
    83     5     7    1
    84     5     6    1
    85   101   102    1
    86    88    87    1
    87    96   102    1
    88    96    91   am
    89   163   164    1
    90     6     8    1
    91    15    16    2
    92   178   177    1
    93   178   179   ar
    94   164   165    1
    95    92    91    2
    96   177   174    1
    97   172   171    1
    98    91    90    1
    99    87    85   ar
   100    87    86   ar
   101    94    93    1
   102   170   169    2
   103    27    26    2
   104    85    83   ar
   105   176   175    2
   106    30    28    1
   107    24    25    1
   108    28    25    1
   109    28    29    1
   110    86    84   ar
   111   167   168    1
   112    93    90    1
   113    93    95    1
   114   169   173   am
   115   169   168    1
   116   174   175    1
   117   174   173    1
   118    90    89    1
   119   171   168    1
   120    26    25    1
   121    83    82   ar
   122    89    79   am
   123    84    82   ar
   124    82    81    1
   125    44    43    1
   126    79    80    2
   127    79    78    1
   128    43    42    1
   129    35    32    1
   130    41    42    1
   131    41    40    1
   132    81    78    1
   133    78    77    1
   134    53    51   ar
   135    60    58    1
   136    58    59    1
   137    58    55    1
   138    40    37    1
   139    32    31    1
   140    32    33    1
   141    52    51   ar
   142    72    71    2
   143    37    36    1
   144    37    38    1
   145    51    50    1
   146    77    71   am
   147    54    55    1
   148    33    34    2
   149    71    70    1
   150    38    39    2
   151    55    56    1
   152    67    66    1
   153    50    49    1
   154    49    46    1
   155    65    66    1
   156    65    62    1
   157    68    66    1
   158    70    73    1
   159    70    69    1
   160    56    57    2
   161    73    74    1
   162    64    63    2
   163    63    69   am
   164    63    62    1
   165    46    45    1
   166    46    47    1
   167    62    61    1
   168    74    76   ar
   169    74    75   ar
   170    47    48    2
