@<TRIPOS>MOLECULE
tmp/2ow9B00.pdb
 213 215 0 0 0
SMALL
GASTEIGER

@<TRIPOS>ATOM
      1  N         98.8110  -10.1140   30.7060 N.3    37  LYS37      -0.1245
      2  CA        99.2440  -11.1700   29.7950 C.3    37  LYS37       0.1561
      3  C         98.2220  -11.3230   28.6650 C.2    37  LYS37       0.2260
      4  O         98.5990  -11.5030   27.5080 O.2    37  LYS37      -0.2867
      5  CB        99.4310  -12.4810   30.5690 C.3    37  LYS37       0.0271
      6  CG       100.1070  -13.6100   29.8010 C.3    37  LYS37       0.0035
      7  CD        99.9840  -14.9290   30.5690 C.3    37  LYS37       0.0206
      8  CE       100.4580  -16.1150   29.7410 C.3    37  LYS37       0.1093
      9  NZ       100.0980  -17.4290   30.3610 N.3    37  LYS37      -0.1314
     10  N         80.4720  -17.3980   31.1230 N.3    82  LEU82      -0.1245
     11  CA        81.6690  -17.1570   31.9400 C.3    82  LEU82       0.1561
     12  C         81.9970  -15.6810   32.0580 C.2    82  LEU82       0.2260
     13  O         82.5270  -15.2330   33.0790 O.2    82  LEU82      -0.2867
     14  CB        82.8830  -17.8840   31.3450 C.3    82  LEU82       0.0270
     15  CG        82.7110  -19.3610   30.9960 C.3    82  LEU82       0.0019
     16  CD1       83.9920  -19.8950   30.3640 C.3    82  LEU82       0.0001
     17  CD2       82.3230  -20.1620   32.2300 C.3    82  LEU82       0.0001
     18  N         90.4700  -20.4470   33.7420 N.3   112  ASN112     -0.1240
     19  CA        91.7070  -19.6890   33.7260 C.3   112  ASN112      0.1653
     20  C         91.4070  -18.2420   33.3200 C.2   112  ASN112      0.2266
     21  O         90.9610  -17.9840   32.1960 O.2   112  ASN112     -0.2867
     22  CB        92.6930  -20.3720   32.7710 C.3   112  ASN112      0.1155
     23  CG        94.0800  -19.7740   32.8250 C.2   112  ASN112      0.2627
     24  OD1       95.0520  -20.4620   33.1450 O.2   112  ASN112     -0.2716
     25  ND2       94.1880  -18.4960   32.4940 N.am  112  ASN112     -0.0877
     26  N         93.2950  -15.5340   32.7110 N.3   114  PHE114     -0.1227
     27  CA        94.0720  -15.0800   31.5580 C.3   114  PHE114      0.1736
     28  C         93.4410  -15.5420   30.2410 C.2   114  PHE114      0.2595
     29  O         93.2470  -14.7450   29.3190 O.2   114  PHE114     -0.2718
     30  CB        95.5260  -15.5730   31.6590 C.3   114  PHE114      0.0547
     31  CG        96.2060  -15.7340   30.3230 C.ar  114  PHE114     -0.0202
     32  CD1       96.4610  -17.0020   29.8070 C.ar  114  PHE114     -0.0042
     33  CD2       96.5650  -14.6190   29.5700 C.ar  114  PHE114     -0.0042
     34  CE1       97.0760  -17.1620   28.5670 C.ar  114  PHE114     -0.0003
     35  CE2       97.1800  -14.7690   28.3270 C.ar  114  PHE114     -0.0003
     36  CZ        97.4360  -16.0390   27.8260 C.ar  114  PHE114     -0.0000
     37  N         93.1240  -16.8320   30.1670 N.am  115  LEU115     -0.1966
     38  CA        92.6220  -17.4320   28.9370 C.3   115  LEU115      0.1728
     39  C         91.2720  -16.8570   28.5300 C.2   115  LEU115      0.2616
     40  O         91.0890  -16.4790   27.3740 O.2   115  LEU115     -0.2715
     41  CB        92.5520  -18.9540   29.0640 C.3   115  LEU115      0.0311
     42  CG        92.1310  -19.7750   27.8430 C.3   115  LEU115      0.0022
     43  CD1       93.0320  -19.5080   26.6410 C.3   115  LEU115      0.0001
     44  CD2       92.1470  -21.2480   28.2110 C.3   115  LEU115      0.0001
     45  N         90.3380  -16.7850   29.4800 N.am  116  VAL116     -0.1977
     46  CA        89.0170  -16.2130   29.2050 C.3   116  VAL116      0.1596
     47  C         89.1590  -14.7300   28.8600 C.2   116  VAL116      0.2287
     48  O         88.5400  -14.2550   27.9100 O.2   116  VAL116     -0.2864
     49  CB        88.0300  -16.4390   30.3790 C.3   116  VAL116      0.0276
     50  CG1       86.6870  -15.7630   30.1030 C.3   116  VAL116      0.0022
     51  CG2       87.8300  -17.9410   30.6210 C.3   116  VAL116      0.0022
     52  N         90.3140  -14.2850   25.2960 N.3   119  HIS119     -0.1226
     53  CA        89.1270  -14.4970   24.4660 C.3   119  HIS119      0.1752
     54  C         88.2270  -13.2600   24.4460 C.2   119  HIS119      0.2595
     55  O         87.8840  -12.7620   23.3740 O.2   119  HIS119     -0.2718
     56  CB        88.3540  -15.7270   24.9610 C.3   119  HIS119      0.0759
     57  CG        87.0600  -15.9730   24.2420 C.ar  119  HIS119      0.0818
     58  ND1       86.9170  -16.9540   23.2840 N.ar  119  HIS119     -0.2268
     59  CD2       85.8490  -15.3760   24.3520 C.ar  119  HIS119      0.1154
     60  CE1       85.6770  -16.9440   22.8270 C.ar  119  HIS119      0.1986
     61  NE2       85.0080  -15.9980   23.4610 N.ar  119  HIS119     -0.2212
     62  N         87.8580  -12.7610   25.6280 N.am  120  GLU120     -0.1979
     63  CA        86.9930  -11.5830   25.7290 C.3   120  GLU120      0.1602
     64  C         87.5980  -10.3560   25.0620 C.2   120  GLU120      0.2287
     65  O         86.8930   -9.6110   24.3820 O.2   120  GLU120     -0.2864
     66  CB        86.6210  -11.2760   27.1870 C.3   120  GLU120      0.0415
     67  CG        85.8350  -12.3810   27.8890 C.3   120  GLU120      0.1163
     68  CD        84.6070  -12.8490   27.1200 C.2   120  GLU120      0.3649
     69  OE1       83.8920  -12.0130   26.5180 O.co2 120  GLU120     -0.2457
     70  OE2       84.3530  -14.0660   27.1380 O.co2 120  GLU120     -0.2457
     71  N         87.4820  -25.0470   15.8730 N.3   133  PRO133     -0.2102
     72  CA        87.4060  -25.5480   17.2510 C.3   133  PRO133      0.1504
     73  C         88.6900  -25.3900   18.0690 C.2   133  PRO133      0.2576
     74  O         88.6370  -25.4330   19.3030 O.2   133  PRO133     -0.2718
     75  CB        87.0580  -27.0310   17.0740 C.3   133  PRO133      0.0282
     76  CG        87.5120  -27.3690   15.7030 C.3   133  PRO133      0.0208
     77  CD        87.2910  -26.1330   14.8910 C.3   133  PRO133      0.0893
     78  N         89.8170  -25.1940   17.3910 N.am  134  GLY134     -0.1943
     79  CA        91.1020  -24.9920   18.0580 C.3   134  GLY134      0.2014
     80  C         91.4610  -23.5320   18.2980 C.2   134  GLY134      0.2639
     81  O         92.4790  -23.2360   18.9280 O.2   134  GLY134     -0.2714
     82  N         90.6220  -22.6230   17.8050 N.am  135  ALA135     -0.1963
     83  CA        90.8870  -21.1850   17.8970 C.3   135  ALA135      0.1728
     84  C         90.5560  -20.6290   19.2810 C.2   135  ALA135      0.2616
     85  O         89.6620  -21.1320   19.9650 O.2   135  ALA135     -0.2715
     86  CB        90.1130  -20.4300   16.8200 C.3   135  ALA135      0.0334
     87  N         91.2810  -19.5860   19.6860 N.am  136  LEU136     -0.1977
     88  CA        90.9870  -18.8890   20.9370 C.3   136  LEU136      0.1596
     89  C         89.5680  -18.3270   20.9130 C.2   136  LEU136      0.2287
     90  O         88.8760  -18.3320   21.9280 O.2   136  LEU136     -0.2864
     91  CB        91.9990  -17.7630   21.1910 C.3   136  LEU136      0.0297
     92  CG        91.7240  -16.8330   22.3810 C.3   136  LEU136      0.0022
     93  CD1       91.7530  -17.5910   23.7140 C.3   136  LEU136      0.0001
     94  CD2       92.7070  -15.6790   22.3940 C.3   136  LEU136      0.0001
     95  N         86.9980  -19.5320   19.4230 N.3   138  PHE138     -0.1228
     96  CA        85.9500  -20.5560   19.4420 C.3   138  PHE138      0.1721
     97  C         85.0790  -20.3650   20.6950 C.2   138  PHE138      0.2437
     98  O         85.6050  -20.0490   21.7620 O.2   138  PHE138     -0.2733
     99  CB        86.5640  -21.9600   19.4050 C.3   138  PHE138      0.0547
    100  CG        85.5790  -23.0470   19.0650 C.ar  138  PHE138     -0.0202
    101  CD1       85.0010  -23.1140   17.7940 C.ar  138  PHE138     -0.0042
    102  CD2       85.2260  -24.0030   20.0120 C.ar  138  PHE138     -0.0042
    103  CE1       84.0840  -24.1180   17.4730 C.ar  138  PHE138     -0.0003
    104  CE2       84.3150  -25.0140   19.6990 C.ar  138  PHE138     -0.0003
    105  CZ        83.7450  -25.0690   18.4260 C.ar  138  PHE138     -0.0000
    106  N         83.7440  -20.5280   20.5670 N.am  139  PRO139     -0.2718
    107  CA        82.8390  -20.2400   21.6900 C.3   139  PRO139      0.1535
    108  C         83.0090  -21.1330   22.9230 C.2   139  PRO139      0.2598
    109  O         82.6840  -20.7020   24.0330 O.2   139  PRO139     -0.2715
    110  CB        81.4410  -20.4510   21.0870 C.3   139  PRO139      0.0310
    111  CG        81.6260  -20.4230   19.6200 C.3   139  PRO139      0.0237
    112  CD        82.9980  -20.9520   19.3680 C.3   139  PRO139      0.0939
    113  N         83.5050  -22.3560   22.7350 N.am  140  ILE140     -0.1964
    114  CA        83.5760  -23.3320   23.8270 C.3   140  ILE140      0.1727
    115  C         84.9620  -23.3840   24.4760 C.2   140  ILE140      0.2616
    116  O         85.9690  -23.6370   23.8040 O.2   140  ILE140     -0.2715
    117  CB        83.1170  -24.7540   23.3700 C.3   140  ILE140      0.0290
    118  CG1       81.6120  -24.7740   23.0740 C.3   140  ILE140      0.0022
    119  CG2       83.4180  -25.8060   24.4330 C.3   140  ILE140      0.0023
    120  CD1       81.2290  -24.3290   21.6750 C.3   140  ILE140      0.0001
    121  N         84.9940  -23.1390   25.7870 N.am  141  TYR141     -0.1960
    122  CA        86.2190  -23.2160   26.5870 C.3   141  TYR141      0.1771
    123  C         86.7760  -24.6410   26.5970 C.2   141  TYR141      0.2620
    124  O         86.1140  -25.5740   27.0680 O.2   141  TYR141     -0.2715
    125  CB        85.9320  -22.7400   28.0150 C.3   141  TYR141      0.0574
    126  CG        87.1430  -22.6360   28.9290 C.ar  141  TYR141     -0.0198
    127  CD1       87.8650  -21.4480   29.0230 C.ar  141  TYR141     -0.0009
    128  CD2       87.5410  -23.7140   29.7190 C.ar  141  TYR141     -0.0009
    129  CE1       88.9640  -21.3430   29.8690 C.ar  141  TYR141      0.0417
    130  CE2       88.6420  -23.6180   30.5680 C.ar  141  TYR141      0.0417
    131  CZ        89.3450  -22.4290   30.6370 C.ar  141  TYR141      0.1957
    132  OH        90.4260  -22.3150   31.4730 O.3   141  TYR141     -0.2866
    133  N         87.9900  -24.7950   26.0720 N.am  142  THR142     -0.1937
    134  CA        88.6560  -26.0930   25.9850 C.3   142  THR142      0.2028
    135  C         90.1420  -25.9770   26.3430 C.2   142  THR142      0.2642
    136  O         90.9810  -25.6940   25.4800 O.2   142  THR142     -0.2714
    137  CB        88.4920  -26.7210   24.5700 C.3   142  THR142      0.1808
    138  OG1       87.1140  -26.6710   24.1760 O.3   142  THR142     -0.2208
    139  CG2       88.9590  -28.1680   24.5610 C.3   142  THR142      0.0379
    140  N         90.4540  -26.2010   27.6170 N.am  143  TYR143     -0.1959
    141  CA        91.8270  -26.1520   28.1180 C.3   143  TYR143      0.1771
    142  C         92.6640  -27.2700   27.4860 C.2   143  TYR143      0.2620
    143  O         92.2340  -28.4270   27.4510 O.2   143  TYR143     -0.2715
    144  CB        91.8100  -26.2890   29.6430 C.3   143  TYR143      0.0574
    145  CG        93.0940  -25.8800   30.3370 C.ar  143  TYR143     -0.0198
    146  CD1       93.3550  -24.5420   30.6430 C.ar  143  TYR143     -0.0009
    147  CD2       94.0370  -26.8330   30.7100 C.ar  143  TYR143     -0.0009
    148  CE1       94.5360  -24.1670   31.2910 C.ar  143  TYR143      0.0417
    149  CE2       95.2170  -26.4690   31.3560 C.ar  143  TYR143      0.0417
    150  CZ        95.4610  -25.1380   31.6420 C.ar  143  TYR143      0.1957
    151  OH        96.6310  -24.7880   32.2800 O.3   143  TYR143     -0.2866
    152  N         93.8460  -26.9300   26.9750 N.am  144  THR144     -0.1937
    153  CA        94.6870  -27.9190   26.2840 C.3   144  THR144      0.2028
    154  C         95.7870  -28.5480   27.1520 C.2   144  THR144      0.2643
    155  O         96.4730  -29.4720   26.7120 O.2   144  THR144     -0.2714
    156  CB        95.3130  -27.3510   24.9880 C.3   144  THR144      0.1808
    157  OG1       96.2090  -26.2840   25.3180 O.3   144  THR144     -0.2208
    158  CG2       94.2350  -26.8460   24.0350 C.3   144  THR144      0.0379
    159  N         95.9630  -28.0480   28.3730 N.am  145  GLY145     -0.1939
    160  CA        96.9090  -28.6570   29.3190 C.3   145  GLY145      0.2014
    161  C         98.3770  -28.3550   29.0730 C.2   145  GLY145      0.2639
    162  O         99.2470  -28.7930   29.8400 O.2   145  GLY145     -0.2714
    163  N         98.6570  -27.6210   27.9980 N.am  146  LYS146     -0.1963
    164  CA       100.0090  -27.1460   27.7120 C.3   146  LYS146      0.1728
    165  C        100.3420  -26.0020   28.6610 C.2   146  LYS146      0.2617
    166  O         99.4600  -25.2310   29.0470 O.2   146  LYS146     -0.2715
    167  CB       100.1310  -26.6900   26.2540 C.3   146  LYS146      0.0311
    168  CG        99.8450  -27.7810   25.2210 C.3   146  LYS146      0.0038
    169  CD       100.8840  -28.9060   25.2700 C.3   146  LYS146      0.0206
    170  CE       100.6050  -29.9750   24.2220 C.3   146  LYS146      0.1093
    171  NZ       101.5740  -31.1050   24.3230 N.3   146  LYS146     -0.1314
    172  N        101.6100  -25.9030   29.0500 N.am  147  SER147     -0.1936
    173  CA       102.0200  -24.8940   30.0270 C.3   147  SER147      0.2055
    174  C        102.2350  -23.5160   29.4140 C.2   147  SER147      0.2643
    175  O        102.1870  -22.5080   30.1250 O.2   147  SER147     -0.2714
    176  CB       103.2700  -25.3470   30.7870 C.3   147  SER147      0.2130
    177  OG       104.2740  -25.7880   29.8930 O.3   147  SER147     -0.2179
    178  N        102.4620  -23.4700   28.1030 N.am  148  HIS148     -0.1959
    179  CA       102.7260  -22.2070   27.4180 C.3   148  HIS148      0.1787
    180  C        101.6350  -21.8560   26.4160 C.2   148  HIS148      0.2620
    181  O        101.3160  -22.6510   25.5290 O.2   148  HIS148     -0.2715
    182  CB       104.0830  -22.2510   26.7170 C.3   148  HIS148      0.0785
    183  CG       105.2200  -22.5450   27.6410 C.ar  148  HIS148      0.0821
    184  ND1      105.4470  -23.8010   28.1640 N.ar  148  HIS148     -0.2267
    185  CD2      106.1840  -21.7440   28.1490 C.ar  148  HIS148      0.1154
    186  CE1      106.5070  -23.7610   28.9510 C.ar  148  HIS148      0.1986
    187  NE2      106.9740  -22.5250   28.9570 N.ar  148  HIS148     -0.2212
    188  N        101.0760  -20.6580   26.5600 N.am  149  PHE149     -0.1960
    189  CA       100.0600  -20.1770   25.6360 C.3   149  PHE149      0.1771
    190  C        100.6580  -19.8630   24.2710 C.2   149  PHE149      0.2619
    191  O        101.7020  -19.2100   24.1700 O.2   149  PHE149     -0.2715
    192  CB        99.3380  -18.9390   26.1910 C.3   149  PHE149      0.0574
    193  CG        98.2530  -18.4120   25.2850 C.ar  149  PHE149     -0.0200
    194  CD1       96.9490  -18.8870   25.3900 C.ar  149  PHE149     -0.0042
    195  CD2       98.5380  -17.4450   24.3190 C.ar  149  PHE149     -0.0042
    196  CE1       95.9410  -18.4040   24.5550 C.ar  149  PHE149     -0.0003
    197  CE2       97.5360  -16.9610   23.4760 C.ar  149  PHE149     -0.0003
    198  CZ        96.2380  -17.4400   23.5950 C.ar  149  PHE149     -0.0000
    199  N         99.9900  -20.3440   23.2280 N.am  150  MET150     -0.1977
    200  CA       100.2910  -19.9420   21.8590 C.3   150  MET150      0.1605
    201  C         98.9920  -19.5120   21.1980 C.2   150  MET150      0.2287
    202  O         98.0050  -20.2490   21.2300 O.2   150  MET150     -0.2864
    203  CB       100.9250  -21.0840   21.0540 C.3   150  MET150      0.0413
    204  CG       102.0740  -21.8330   21.7470 C.3   150  MET150      0.0598
    205  SD       103.6550  -20.9580   21.8080 S.3   150  MET150     -0.1393
    206  CE       104.6540  -22.1430   22.7090 C.3   150  MET150      0.0692
    207  N         96.5130  -19.3670   18.4940 N.3   152  PRO152     -0.2116
    208  CA        96.2520  -20.1540   17.2840 C.3   152  PRO152      0.1372
    209  C         96.2250  -19.2960   16.0210 C.2   152  PRO152      0.2244
    210  O         95.8230  -18.1280   16.0680 O.2   152  PRO152     -0.2868
    211  CB        94.8720  -20.7650   17.5520 C.3   152  PRO152      0.0268
    212  CG        94.7690  -20.8030   19.0360 C.3   152  PRO152      0.0207
    213  CD        95.4430  -19.5430   19.4920 C.3   152  PRO152      0.0892
@<TRIPOS>BOND
     1    77    76    1
     2    77    71    1
     3    76    75    1
     4    71    72    1
     5   209   210    2
     6   209   208    1
     7    86    83    1
     8    75    72    1
     9    72    73    1
    10   208   211    1
    11   208   207    1
    12    78    79    1
    13    78    73   am
    14   103   101   ar
    15   103   105   ar
    16   211   212    1
    17   101   100   ar
    18    82    83    1
    19    82    80   am
    20    83    84    1
    21    79    80    1
    22    73    74    2
    23    80    81    2
    24   105   104   ar
    25   207   213    1
    26   212   213    1
    27   100    99    1
    28   100   102   ar
    29    84    87   am
    30    84    85    2
    31   112   111    1
    32   112   106    1
    33    99    96    1
    34    95    96    1
    35    96    97    1
    36   111   110    1
    37    87    88    1
    38   104   102   ar
    39   106    97   am
    40   106   107    1
    41    97    98    2
    42    89    88    1
    43    89    90    2
    44    88    91    1
    45   203   204    1
    46   203   200    1
    47   110   107    1
    48    91    92    1
    49   201   202    2
    50   201   200    1
    51   120   118    1
    52   107   108    1
    53   204   205    1
    54   205   206    1
    55   200   199    1
    56    92    94    1
    57    92    93    1
    58   113   108   am
    59   113   114    1
    60    60    58   ar
    61    60    61   ar
    62   108   109    2
    63   118   117    1
    64   199   190   am
    65    58    57   ar
    66   117   114    1
    67   117   119    1
    68    55    54    2
    69    61    59   ar
    70   197   198   ar
    71   197   195   ar
    72   198   196   ar
    73   116   115    2
    74   114   115    1
    75   158   156    1
    76   191   190    2
    77   138   137    1
    78   170   171    1
    79   170   169    1
    80    57    59   ar
    81    57    56    1
    82   190   189    1
    83   195   193   ar
    84    65    64    2
    85    54    53    1
    86    54    62   am
    87    53    56    1
    88    53    52    1
    89   115   121   am
    90   196   194   ar
    91   139   137    1
    92   137   134    1
    93   156   157    1
    94   156   153    1
    95    64    63    1
    96   168   169    1
    97   168   167    1
    98   193   194   ar
    99   193   192    1
   100   136   135    2
   101   181   180    2
   102    62    63    1
   103   189   192    1
   104   189   188    1
   105    63    66    1
   106   121   122    1
   107   134   133    1
   108   134   135    1
   109   133   123   am
   110   167   164    1
   111   153   152    1
   112   153   154    1
   113   135   140   am
   114   180   188   am
   115   180   179    1
   116    69    68   ar
   117   122   123    1
   118   122   125    1
   119   123   124    2
   120    43    42    1
   121   155   154    2
   122   182   179    1
   123   182   183    1
   124   152   142   am
   125    68    70   ar
   126    68    67    1
   127   154   159   am
   128    66    67    1
   129    40    39    2
   130   179   178    1
   131   143   142    2
   132   142   141    1
   133     4     3    2
   134   140   141    1
   135   183   185   ar
   136   183   184   ar
   137   164   163    1
   138   164   165    1
   139    36    35   ar
   140    36    34   ar
   141    42    44    1
   142    42    41    1
   143    48    47    2
   144   163   161   am
   145   125   126    1
   146   178   174   am
   147   141   144    1
   148   185   187   ar
   149   184   186   ar
   150    35    33   ar
   151   159   160    1
   152    39    38    1
   153    39    45   am
   154    34    32   ar
   155   165   166    2
   156   165   172   am
   157     3     2    1
   158    47    46    1
   159   126   127   ar
   160   126   128   ar
   161    38    41    1
   162    38    37    1
   163   186   187   ar
   164   127   129   ar
   165   172   173    1
   166   161   160    1
   167   161   162    2
   168    46    45    1
   169    46    49    1
   170    29    28    2
   171   174   173    1
   172   174   175    2
   173    33    31   ar
   174   144   145    1
   175   128   130   ar
   176     8     9    1
   177     8     7    1
   178     2     5    1
   179     2     1    1
   180     6     5    1
   181     6     7    1
   182    32    31   ar
   183   129   131   ar
   184   177   176    1
   185   173   176    1
   186    50    49    1
   187    37    28   am
   188    28    27    1
   189    31    30    1
   190   145   146   ar
   191   145   147   ar
   192    16    15    1
   193    49    51    1
   194   130   131   ar
   195   131   132    1
   196   146   148   ar
   197   147   149   ar
   198    15    14    1
   199    15    17    1
   200    10    11    1
   201   148   150   ar
   202    14    11    1
   203   149   150   ar
   204    27    30    1
   205    27    26    1
   206   150   151    1
   207    11    12    1
   208    12    13    2
   209    21    20    2
   210    25    23   am
   211    22    23    1
   212    22    19    1
   213    23    24    2
   214    20    19    1
   215    19    18    1
