@<TRIPOS>MOLECULE
tmp/2owbA00.pdb
 169 161 0 0 0
SMALL
GASTEIGER

@<TRIPOS>ATOM
      1  N          7.2570   16.9980   67.1780 N.3    21  ARG21      -0.1231
      2  CA         5.8850   16.4920   67.2680 C.3    21  ARG21       0.1694
      3  C          4.8870   17.2580   66.4040 C.2    21  ARG21       0.2592
      4  O          4.9780   18.4780   66.2640 O.2    21  ARG21      -0.2718
      5  CB         5.4030   16.5350   68.7230 C.3    21  ARG21       0.0321
      6  CG         6.2300   15.6940   69.6900 C.3    21  ARG21       0.0489
      7  CD         5.5990   15.5360   71.0680 C.3    21  ARG21       0.2205
      8  NE         5.2850   16.8260   71.6770 N.pl3  21  ARG21      -0.0865
      9  CZ         4.6460   16.9890   72.8320 C.cat  21  ARG21       0.5346
     10  NH1        4.2390   15.9370   73.5370 N.pl3  21  ARG21       0.1354
     11  NH2        4.4120   18.2150   73.2890 N.pl3  21  ARG21       0.1354
     12  N          3.9250   16.5300   65.8420 N.am   22  PHE22      -0.1962
     13  CA         2.8370   17.1360   65.0790 C.3    22  PHE22       0.1771
     14  C          1.8730   17.8420   66.0290 C.2    22  PHE22       0.2619
     15  O          1.4900   17.2860   67.0570 O.2    22  PHE22      -0.2715
     16  CB         2.0920   16.0740   64.2630 C.3    22  PHE22       0.0574
     17  CG         0.9450   16.6220   63.4560 C.ar   22  PHE22      -0.0200
     18  CD1        1.1800   17.4890   62.3940 C.ar   22  PHE22      -0.0042
     19  CD2       -0.3680   16.2790   63.7610 C.ar   22  PHE22      -0.0042
     20  CE1        0.1240   18.0000   61.6440 C.ar   22  PHE22      -0.0003
     21  CE2       -1.4280   16.7870   63.0160 C.ar   22  PHE22      -0.0003
     22  CZ        -1.1810   17.6470   61.9560 C.ar   22  PHE22      -0.0000
     23  N          1.4840   19.0630   65.6730 N.am   23  LEU23      -0.1963
     24  CA         0.6360   19.9060   66.5200 C.3    23  LEU23       0.1728
     25  C         -0.7830   20.0780   65.9690 C.2    23  LEU23       0.2617
     26  O         -1.7390   20.1580   66.7390 O.2    23  LEU23      -0.2715
     27  CB         1.2870   21.2770   66.7190 C.3    23  LEU23       0.0311
     28  CG         2.5780   21.3250   67.5430 C.3    23  LEU23       0.0022
     29  CD1        3.0640   22.7610   67.6740 C.3    23  LEU23       0.0001
     30  CD2        2.3870   20.6980   68.9200 C.3    23  LEU23       0.0001
     31  N         -0.9240   20.1430   64.6480 N.am   24  GLY24      -0.1940
     32  CA        -2.2390   20.2570   64.0360 C.3    24  GLY24       0.2014
     33  C         -2.2550   20.8340   62.6330 C.2    24  GLY24       0.2639
     34  O         -1.2150   21.1200   62.0520 O.2    24  GLY24      -0.2714
     35  N         -3.4600   21.0000   62.0970 N.am   25  LYS25      -0.1963
     36  CA        -3.6660   21.5140   60.7460 C.3    25  LYS25       0.1728
     37  C         -4.5110   22.7830   60.7940 C.2    25  LYS25       0.2616
     38  O         -5.2750   22.9910   61.7340 O.2    25  LYS25      -0.2715
     39  CB        -4.3580   20.4440   59.8890 C.3    25  LYS25       0.0311
     40  CG        -4.4490   20.7790   58.4010 C.3    25  LYS25       0.0038
     41  CD        -4.2420   19.5500   57.5050 C.3    25  LYS25       0.0206
     42  CE        -3.8300   19.9580   56.0840 C.3    25  LYS25       0.1093
     43  NZ        -4.1580   18.9060   55.0700 N.3    25  LYS25      -0.1314
     44  N         -4.3610   23.6260   59.7770 N.am   26  GLY26      -0.1955
     45  CA        -5.1410   24.8450   59.6420 C.3    26  GLY26       0.1869
     46  C         -4.9920   25.4140   58.2430 C.2    26  GLY26       0.2309
     47  O         -3.9330   25.9290   57.8980 O.2    26  GLY26      -0.2863
     48  N         -1.8610   24.6940   55.7140 N.3    29  ALA29      -0.1231
     49  CA        -0.6460   24.5190   56.5030 C.3    29  ALA29       0.1694
     50  C         -0.7540   23.3970   57.5320 C.2    29  ALA29       0.2592
     51  O         -1.8430   23.0240   57.9530 O.2    29  ALA29      -0.2718
     52  CB        -0.2920   25.8300   57.2000 C.3    29  ALA29       0.0304
     53  N          0.4010   22.8650   57.9150 N.am   30  LYS30      -0.1966
     54  CA         0.5270   21.9510   59.0430 C.3    30  LYS30       0.1728
     55  C          1.4320   22.6130   60.0800 C.2    30  LYS30       0.2616
     56  O          2.2830   23.4330   59.7360 O.2    30  LYS30      -0.2715
     57  CB         1.1280   20.6200   58.5870 C.3    30  LYS30       0.0311
     58  CG         0.1490   19.7100   57.8630 C.3    30  LYS30       0.0038
     59  CD         0.8440   18.4750   57.3090 C.3    30  LYS30       0.0206
     60  CE        -0.1370   17.5430   56.6110 C.3    30  LYS30       0.1093
     61  NZ         0.3830   16.1490   56.5290 N.3    30  LYS30      -0.1314
     62  N          1.2500   22.2550   61.3440 N.am   31  CYS31      -0.1968
     63  CA         2.0440   22.8230   62.4290 C.3    31  CYS31       0.1712
     64  C          2.8280   21.7180   63.1270 C.2    31  CYS31       0.2296
     65  O          2.2710   20.6770   63.4570 O.2    31  CYS31      -0.2864
     66  CB         1.1560   23.5550   63.4350 C.3    31  CYS31       0.0983
     67  SG         2.0710   24.7080   64.4900 S.3    31  CYS31      -0.0798
     68  N          6.0980   21.1310   66.1790 N.3    33  GLU33      -0.1245
     69  CA         7.1850   21.5630   67.0400 C.3    33  GLU33       0.1567
     70  C          8.4720   21.3430   66.2510 C.2    33  GLU33       0.2260
     71  O          8.6650   20.2790   65.6740 O.2    33  GLU33      -0.2867
     72  CB         7.2110   20.7610   68.3440 C.3    33  GLU33       0.0388
     73  CG         5.9910   20.9870   69.2250 C.3    33  GLU33       0.1160
     74  CD         6.1150   20.3490   70.5970 C.2    33  GLU33       0.3649
     75  OE1        5.3430   20.7360   71.4950 O.co2  33  GLU33      -0.2457
     76  OE2        6.9780   19.4650   70.7820 O.co2  33  GLU33      -0.2457
     77  N          7.0380   26.7480   67.0170 N.3    44  ALA44      -0.1245
     78  CA         5.9800   26.2170   66.1690 C.3    44  ALA44       0.1562
     79  C          6.3550   26.4830   64.7140 C.2    44  ALA44       0.2260
     80  O          6.4290   27.6300   64.2880 O.2    44  ALA44      -0.2867
     81  CB         4.6440   26.8760   66.5070 C.3    44  ALA44       0.0290
     82  N          5.2450   26.4690   61.0210 N.3    46  LYS46      -0.1245
     83  CA         4.1130   26.4610   60.1000 C.3    46  LYS46       0.1561
     84  C          4.6160   26.1600   58.6890 C.2    46  LYS46       0.2260
     85  O          5.3800   26.9280   58.1220 O.2    46  LYS46      -0.2867
     86  CB         3.3870   27.8110   60.1450 C.3    46  LYS46       0.0271
     87  CG         2.3260   28.0030   59.0700 C.3    46  LYS46       0.0035
     88  CD         1.4240   29.1830   59.3980 C.3    46  LYS46       0.0206
     89  CE         0.2040   29.2220   58.5060 C.3    46  LYS46       0.1093
     90  NZ        -0.5320   30.5010   58.6670 N.3    46  LYS46      -0.1314
     91  N          1.6740   36.3570   68.5300 N.3    78  VAL78      -0.1245
     92  CA         2.5650   35.2360   68.2440 C.3    78  VAL78       0.1561
     93  C          3.8570   35.7570   67.6090 C.2    78  VAL78       0.2260
     94  O          3.8260   36.3950   66.5610 O.2    78  VAL78      -0.2867
     95  CB         1.9060   34.1960   67.2940 C.3    78  VAL78       0.0252
     96  CG1        2.9330   33.1820   66.7940 C.3    78  VAL78       0.0019
     97  CG2        0.7520   33.4730   67.9840 C.3    78  VAL78       0.0019
     98  N          7.6060   30.2300   64.2540 N.3    94  LEU94      -0.1231
     99  CA         6.7640   31.0280   65.1430 C.3    94  LEU94       0.1693
    100  C          6.9680   30.6720   66.6110 C.2    94  LEU94       0.2592
    101  O          7.4820   29.6050   66.9380 O.2    94  LEU94      -0.2718
    102  CB         5.2880   30.8500   64.7640 C.3    94  LEU94       0.0284
    103  CG         4.9180   31.2480   63.3300 C.3    94  LEU94       0.0019
    104  CD1        3.4490   30.9410   63.0320 C.3    94  LEU94       0.0001
    105  CD2        5.2220   32.7140   63.0840 C.3    94  LEU94       0.0001
    106  N          6.5580   31.5830   67.4890 N.am   95  GLU95      -0.1966
    107  CA         6.5760   31.3550   68.9270 C.3    95  GLU95       0.1733
    108  C          5.7140   30.1410   69.2380 C.2    95  GLU95       0.2616
    109  O          4.5950   30.0380   68.7490 O.2    95  GLU95      -0.2715
    110  CB         6.0320   32.5840   69.6610 C.3    95  GLU95       0.0429
    111  CG         5.9240   32.4440   71.1760 C.3    95  GLU95       0.1163
    112  CD         5.4250   33.7110   71.8540 C.2    95  GLU95       0.3649
    113  OE1        5.4290   33.7620   73.1050 O.co2  95  GLU95      -0.2457
    114  OE2        5.0260   34.6590   71.1480 O.co2  95  GLU95      -0.2457
    115  N          6.2490   29.2200   70.0350 N.am   96  LEU96      -0.1963
    116  CA         5.5170   28.0250   70.4220 C.3    96  LEU96       0.1728
    117  C          4.6270   28.3460   71.6150 C.2    96  LEU96       0.2616
    118  O          5.0940   28.8590   72.6310 O.2    96  LEU96      -0.2715
    119  CB         6.4740   26.8810   70.7710 C.3    96  LEU96       0.0311
    120  CG         5.8070   25.5680   71.1950 C.3    96  LEU96       0.0022
    121  CD1        4.9830   24.9740   70.0620 C.3    96  LEU96       0.0001
    122  CD2        6.8510   24.5700   71.6790 C.3    96  LEU96       0.0001
    123  N          3.3450   28.0240   71.4730 N.am   97  CYS97      -0.1954
    124  CA         2.3530   28.2060   72.5220 C.3    97  CYS97       0.1843
    125  C          1.8610   26.8180   72.9160 C.2    97  CYS97       0.2625
    126  O          1.0160   26.2420   72.2430 O.2    97  CYS97      -0.2714
    127  CB         1.2050   29.0690   72.0070 C.3    97  CYS97       0.0997
    128  SG         1.7160   30.7500   71.6200 S.3    97  CYS97      -0.0797
    129  N          2.4030   26.2930   74.0110 N.am   98  ARG98      -0.1977
    130  CA         2.2380   24.8820   74.3630 C.3    98  ARG98       0.1597
    131  C          0.8300   24.4990   74.8220 C.2    98  ARG98       0.2287
    132  O          0.4630   23.3300   74.7510 O.2    98  ARG98      -0.2864
    133  CB         3.2580   24.4840   75.4350 C.3    98  ARG98       0.0334
    134  CG         4.6770   24.3330   74.9060 C.3    98  ARG98       0.0492
    135  CD         5.6800   23.8960   75.9640 C.3    98  ARG98       0.2205
    136  NE         7.0230   23.6690   75.4310 N.pl3  98  ARG98      -0.0865
    137  CZ         7.4100   22.5870   74.7580 C.cat  98  ARG98       0.5346
    138  NH1        6.5640   21.5960   74.5040 N.pl3  98  ARG98       0.1354
    139  NH2        8.6660   22.4970   74.3320 N.pl3  98  ARG98       0.1354
    140  N         -2.0790   25.3620   73.4720 N.3   100  ARG100     -0.1245
    141  CA        -3.0820   25.3950   72.4110 C.3   100  ARG100      0.1563
    142  C         -3.7560   26.7730   72.3160 C.2   100  ARG100      0.2260
    143  O         -3.0630   27.7780   72.2660 O.2   100  ARG100     -0.2867
    144  CB        -4.0810   24.2490   72.6070 C.3   100  ARG100      0.0307
    145  CG        -3.4120   22.9250   72.9590 C.3   100  ARG100      0.0489
    146  CD        -4.3210   21.7140   72.8910 C.3   100  ARG100      0.2205
    147  NE        -4.6500   21.3520   71.5150 N.pl3 100  ARG100     -0.0865
    148  CZ        -5.3830   20.2920   71.1710 C.cat 100  ARG100      0.5346
    149  NH1       -5.8630   19.4670   72.1000 N.pl3 100  ARG100      0.1354
    150  NH2       -5.6360   20.0530   69.8880 N.pl3 100  ARG100      0.1354
    151  N         -3.9330   31.9880   70.9820 N.3   147  PHE147     -0.1241
    152  CA        -3.1290   30.8920   71.5270 C.3   147  PHE147      0.1605
    153  C         -2.6320   31.1720   72.9440 C.2   147  PHE147      0.2264
    154  O         -2.4790   32.3230   73.3460 O.2   147  PHE147     -0.2867
    155  CB        -1.9450   30.5930   70.6010 C.3   147  PHE147      0.0534
    156  CG        -2.3570   30.2540   69.2020 C.ar  147  PHE147     -0.0203
    157  CD1       -2.4210   31.2400   68.2220 C.ar  147  PHE147     -0.0042
    158  CD2       -2.7210   28.9580   68.8720 C.ar  147  PHE147     -0.0042
    159  CE1       -2.8270   30.9310   66.9350 C.ar  147  PHE147     -0.0003
    160  CE2       -3.1240   28.6450   67.5910 C.ar  147  PHE147     -0.0003
    161  CZ        -3.1760   29.6310   66.6190 C.ar  147  PHE147     -0.0000
    162  N         -2.3160   33.6970   63.4300 N.3   158  ASP158     -0.1239
    163  CA        -2.9810   33.5590   62.1330 C.3   158  ASP158      0.1674
    164  C         -3.3550   34.8890   61.4790 C.2   158  ASP158      0.2266
    165  O         -4.5050   35.3360   61.5410 O.2   158  ASP158     -0.2867
    166  CB        -4.2040   32.6350   62.2230 C.3   158  ASP158      0.1410
    167  CG        -4.6270   32.0860   60.8570 C.2   158  ASP158      0.3668
    168  OD1       -4.1040   32.5390   59.8150 O.co2 158  ASP158     -0.2456
    169  OD2       -5.4820   31.1980   60.7250 O.co2 158  ASP158     -0.2456
@<TRIPOS>BOND
     1    43    42    1
     2    48    49    1
     3    42    41    1
     4    49    52    1
     5    49    50    1
     6    61    60    1
     7    60    59    1
     8    59    58    1
     9    41    40    1
    10    50    53   am
    11    50    51    2
    12    58    57    1
    13    47    46    2
    14    53    54    1
    15    85    84    2
    16    46    45    1
    17    40    39    1
    18    89    90    1
    19    89    88    1
    20    57    54    1
    21    84    83    1
    22    54    55    1
    23    87    88    1
    24    87    86    1
    25    45    44    1
    26    56    55    2
    27    44    37   am
    28   168   167   ar
    29    39    36    1
    30    55    62   am
    31    83    86    1
    32    83    82    1
    33   169   167   ar
    34    36    37    1
    35    36    35    1
    36    37    38    2
    37   167   166    1
    38    62    63    1
    39   164   165    2
    40   164   163    1
    41    20    22   ar
    42    20    18   ar
    43    22    21   ar
    44    34    33    2
    45    35    33   am
    46   163   166    1
    47   163   162    1
    48    18    17   ar
    49    63    64    1
    50    63    66    1
    51    33    32    1
    52    21    19   ar
    53   104   103    1
    54   105   103    1
    55    64    65    2
    56   103   102    1
    57    66    67    1
    58    17    19   ar
    59    17    16    1
    60    32    31    1
    61    98    99    1
    62    16    13    1
    63    80    79    2
    64    31    25   am
    65    79    78    1
    66   102    99    1
    67    13    12    1
    68    13    14    1
    69    99   100    1
    70    23    14   am
    71    23    24    1
    72    71    70    2
    73    12     3   am
    74    25    24    1
    75    25    26    2
    76    14    15    2
    77    78    81    1
    78    78    77    1
    79    68    69    1
    80    70    69    1
    81     4     3    2
    82     3     2    1
    83    24    27    1
    84    94    93    2
    85   100   101    2
    86   100   106   am
    87   161   159   ar
    88   161   160   ar
    89    27    28    1
    90    96    95    1
    91   159   157   ar
    92    69    72    1
    93     1     2    1
    94     2     5    1
    95    95    97    1
    96    95    92    1
    97   106   107    1
    98    28    29    1
    99    28    30    1
   100   160   158   ar
   101    93    92    1
   102   157   156   ar
   103    92    91    1
   104    72    73    1
   105     5     6    1
   106   109   108    2
   107   158   156   ar
   108   107   108    1
   109   107   110    1
   110   156   155    1
   111    73    74    1
   112   108   115   am
   113   110   111    1
   114     6     7    1
   115   150   148    1
   116   115   116    1
   117   121   120    1
   118   116   119    1
   119   116   117    1
   120    74    76   ar
   121    74    75   ar
   122   155   152    1
   123   119   120    1
   124   151   152    1
   125     7     8    1
   126   114   112   ar
   127   148   147    2
   128   148   149    1
   129   111   112    1
   130   120   122    1
   131   123   117   am
   132   123   124    1
   133   147   146    1
   134   152   153    1
   135   117   118    2
   136   128   127    1
   137     8     9    2
   138   112   113   ar
   139   127   124    1
   140   126   125    2
   141   143   142    2
   142   142   141    1
   143   141   144    1
   144   141   140    1
   145   124   125    1
   146   144   145    1
   147     9    11    1
   148     9    10    1
   149   146   145    1
   150   125   129   am
   151   153   154    2
   152   129   130    1
   153   139   137    1
   154   130   131    1
   155   130   133    1
   156   138   137    1
   157   132   131    2
   158   137   136    2
   159   134   133    1
   160   134   135    1
   161   136   135    1
