@<TRIPOS>MOLECULE
tmp/2owmC00.pdb
 145 140 0 0 0
SMALL
GASTEIGER

@<TRIPOS>ATOM
      1  N         29.9800   13.3050   21.0310 N.3    12  ARG12      -0.1245
      2  CA        30.6840   13.2010   22.3210 C.3    12  ARG12       0.1563
      3  C         29.7410   12.7010   23.3920 C.2    12  ARG12       0.2260
      4  O         28.7730   13.3780   23.7320 O.2    12  ARG12      -0.2867
      5  CB        31.2640   14.5490   22.7100 C.3    12  ARG12       0.0307
      6  CG        32.1060   14.5470   23.9790 C.3    12  ARG12       0.0489
      7  CD        32.3490   15.9740   24.5040 C.3    12  ARG12       0.2205
      8  NE        33.5730   16.0610   25.2330 N.pl3  12  ARG12      -0.0865
      9  CZ        33.9060   17.0840   25.9780 C.cat  12  ARG12       0.5346
     10  NH1       33.0990   18.1050   26.0770 N.pl3  12  ARG12       0.1354
     11  NH2       35.0620   17.0900   26.6260 N.pl3  12  ARG12       0.1354
     12  N         29.0440   11.7980   27.2400 N.3    14  ARG14      -0.1231
     13  CA        29.5640   12.3080   28.4900 C.3    14  ARG14       0.1694
     14  C         29.5720   11.2910   29.6220 C.2    14  ARG14       0.2592
     15  O         29.1050   10.1760   29.4600 O.2    14  ARG14      -0.2718
     16  CB        28.8650   13.5850   28.8810 C.3    14  ARG14       0.0321
     17  CG        27.8060   13.4190   29.8930 C.3    14  ARG14       0.0489
     18  CD        26.5110   13.1040   29.2360 C.3    14  ARG14       0.2205
     19  NE        25.7590   12.1930   30.0820 N.pl3  14  ARG14      -0.0865
     20  CZ        24.8410   12.5590   30.9650 C.cat  14  ARG14       0.5346
     21  NH1       24.5460   13.8360   31.1110 N.pl3  14  ARG14       0.1354
     22  NH2       24.2270   11.6390   31.7020 N.pl3  14  ARG14       0.1354
     23  N         30.1530   11.6730   30.7530 N.am   15  ALA15      -0.1966
     24  CA        30.3250   10.8000   31.8930 C.3    15  ALA15       0.1728
     25  C         28.9940   10.6410   32.5890 C.2    15  ALA15       0.2616
     26  O         28.1030   11.4600   32.3940 O.2    15  ALA15      -0.2715
     27  CB        31.3350   11.4090   32.8170 C.3    15  ALA15       0.0334
     28  N         28.8370    9.5980   33.3980 N.am   16  PHE16      -0.1960
     29  CA        27.5980    9.4520   34.1320 C.3    16  PHE16       0.1771
     30  C         27.3510   10.6740   34.9980 C.2    16  PHE16       0.2619
     31  O         28.2770   11.3220   35.4620 O.2    16  PHE16      -0.2715
     32  CB        27.6650    8.2540   35.0390 C.3    16  PHE16       0.0574
     33  CG        27.4950    6.9490   34.3490 C.ar   16  PHE16      -0.0200
     34  CD1       26.4190    6.7200   33.5120 C.ar   16  PHE16      -0.0042
     35  CD2       28.3960    5.9110   34.6020 C.ar   16  PHE16      -0.0042
     36  CE1       26.2700    5.4990   32.9100 C.ar   16  PHE16      -0.0003
     37  CE2       28.2650    4.6900   34.0030 C.ar   16  PHE16      -0.0003
     38  CZ        27.2010    4.4790   33.1560 C.ar   16  PHE16      -0.0000
     39  N         26.0890   10.9720   35.2270 N.am   17  LEU17      -0.1977
     40  CA        25.7130   11.9360   36.2400 C.3    17  LEU17       0.1596
     41  C         25.5280   11.2760   37.6050 C.2    17  LEU17       0.2287
     42  O         25.0160   10.1480   37.6830 O.2    17  LEU17      -0.2864
     43  CB        24.3990   12.5800   35.8410 C.3    17  LEU17       0.0297
     44  CG        24.5090   13.3100   34.5060 C.3    17  LEU17       0.0022
     45  CD1       23.1320   13.7870   34.0530 C.3    17  LEU17       0.0001
     46  CD2       25.5010   14.4850   34.6180 C.3    17  LEU17       0.0001
     47  N         34.1140   10.8280   26.0830 N.3    58  SER58      -0.1217
     48  CA        34.3010   11.6640   27.2480 C.3    58  SER58       0.1889
     49  C         33.5580   11.1180   28.4660 C.2    58  SER58       0.2288
     50  O         33.1930   11.8520   29.3910 O.2    58  SER58      -0.2866
     51  CB        33.8830   13.0930   26.9250 C.3    58  SER58       0.2089
     52  OG        34.8110   13.6640   26.0150 O.3    58  SER58      -0.2183
     53  N         40.2570    8.6170   26.4230 N.3    66  TYR66      -0.1241
     54  CA        39.4050    9.6510   27.0000 C.3    66  TYR66       0.1605
     55  C         39.6270   10.9490   26.2750 C.2    66  TYR66       0.2264
     56  O         40.7540   11.2910   26.0070 O.2    66  TYR66      -0.2867
     57  CB        39.7340    9.8760   28.4840 C.3    66  TYR66       0.0534
     58  CG        38.8240   10.9090   29.1040 C.ar   66  TYR66      -0.0201
     59  CD1       37.5540   10.5670   29.5760 C.ar   66  TYR66      -0.0009
     60  CD2       39.1970   12.2580   29.1470 C.ar   66  TYR66      -0.0009
     61  CE1       36.7070   11.5400   30.1110 C.ar   66  TYR66       0.0417
     62  CE2       38.3380   13.2370   29.6610 C.ar   66  TYR66       0.0417
     63  CZ        37.1110   12.8680   30.1450 C.ar   66  TYR66       0.1957
     64  OH        36.2750   13.8090   30.6640 O.3    66  TYR66      -0.2866
     65  N         20.1160   15.8920   23.4640 N.3    97  GLN97      -0.1231
     66  CA        19.0730   16.0530   24.4790 C.3    97  GLN97       0.1698
     67  C         19.5740   16.9120   25.6130 C.2    97  GLN97       0.2593
     68  O         20.7740   17.0660   25.7770 O.2    97  GLN97      -0.2718
     69  CB        18.6140   14.6990   25.0350 C.3    97  GLN97       0.0381
     70  CG        19.7450   13.8810   25.6790 C.3    97  GLN97       0.0905
     71  CD        19.2700   12.5130   26.1650 C.2    97  GLN97       0.2608
     72  OE1       19.9620   11.4960   26.0020 O.2    97  GLN97      -0.2717
     73  NE2       18.0880   12.4830   26.7540 N.am   97  GLN97      -0.0878
     74  N         18.6370   17.4340   26.4020 N.am   98  THR98      -0.1939
     75  CA        18.9490   18.1870   27.5920 C.3    98  THR98       0.2028
     76  C         19.7980   17.3290   28.4980 C.2    98  THR98       0.2643
     77  O         19.5480   16.1450   28.6750 O.2    98  THR98      -0.2714
     78  CB        17.7010   18.6430   28.2890 C.3    98  THR98       0.1808
     79  OG1       17.1440   19.7080   27.5380 O.3    98  THR98      -0.2208
     80  CG2       18.0140   19.2120   29.6020 C.3    98  THR98       0.0379
     81  N         20.8590   17.9260   29.0210 N.am   99  GLY99      -0.1939
     82  CA        21.7200   17.2250   29.9440 C.3    99  GLY99       0.2014
     83  C         22.6760   16.3160   29.2270 C.2    99  GLY99       0.2640
     84  O         23.4110   15.5700   29.8580 O.2    99  GLY99      -0.2714
     85  N         22.6920   16.3670   27.9060 N.am  100  SER100     -0.1935
     86  CA        23.6500   15.5570   27.1810 C.3   100  SER100      0.2055
     87  C         25.0930   16.1360   27.2230 C.2   100  SER100      0.2644
     88  O         26.0620   15.4160   27.0200 O.2   100  SER100     -0.2714
     89  CB        23.1500   15.3200   25.7590 C.3   100  SER100      0.2130
     90  OG        23.0680   16.5550   25.0930 O.3   100  SER100     -0.2179
     91  N         25.2380   17.4250   27.5090 N.am  101  GLY101     -0.1939
     92  CA        26.5660   18.0320   27.5730 C.3   101  GLY101      0.2014
     93  C         26.7810   19.1120   26.5110 C.2   101  GLY101      0.2639
     94  O         27.9160   19.5180   26.2300 O.2   101  GLY101     -0.2714
     95  N         25.6980   19.5890   25.9100 N.am  102  LYS102     -0.1963
     96  CA        25.8340   20.6620   24.9350 C.3   102  LYS102      0.1728
     97  C         26.5740   21.8430   25.5130 C.2   102  LYS102      0.2617
     98  O         27.5850   22.2540   24.9590 O.2   102  LYS102     -0.2715
     99  CB        24.4680   21.1290   24.4040 C.3   102  LYS102      0.0311
    100  CG        23.6310   20.0380   23.7710 C.3   102  LYS102      0.0038
    101  CD        22.2960   20.5960   23.3380 C.3   102  LYS102      0.0206
    102  CE        21.3640   21.0200   24.4980 C.3   102  LYS102      0.1093
    103  NZ        20.7380   19.8950   25.2210 N.3   102  LYS102     -0.1314
    104  N         26.0520   22.3750   26.6220 N.am  103  SER103     -0.1936
    105  CA        26.5980   23.5580   27.2590 C.3   103  SER103      0.2055
    106  C         27.9920   23.2350   27.7410 C.2   103  SER103      0.2643
    107  O         28.9010   24.0190   27.5060 O.2   103  SER103     -0.2714
    108  CB        25.7290   24.0260   28.4220 C.3   103  SER103      0.2130
    109  OG        24.3360   24.1360   28.0880 O.3   103  SER103     -0.2179
    110  N         28.1960   22.0670   28.3490 N.am  104  TYR104     -0.1973
    111  CA        29.5380   21.7070   28.8380 C.3   104  TYR104      0.1639
    112  C         30.5100   21.7320   27.7070 C.2   104  TYR104      0.2290
    113  O         31.6100   22.2330   27.8540 O.2   104  TYR104     -0.2864
    114  CB        29.5880   20.3260   29.4680 C.3   104  TYR104      0.0560
    115  CG        30.9370   19.8920   29.9950 C.ar  104  TYR104     -0.0198
    116  CD1       31.3430   20.2250   31.2620 C.ar  104  TYR104     -0.0009
    117  CD2       31.7780   19.1050   29.2350 C.ar  104  TYR104     -0.0009
    118  CE1       32.5850   19.7920   31.7690 C.ar  104  TYR104      0.0417
    119  CE2       33.0150   18.6660   29.7150 C.ar  104  TYR104      0.0417
    120  CZ        33.4150   19.0080   30.9840 C.ar  104  TYR104      0.1957
    121  OH        34.6300   18.5660   31.4520 O.3   104  TYR104     -0.2866
    122  N         33.4060   24.9960   31.8520 N.3   109  THR109     -0.1218
    123  CA        33.3960   25.4150   33.2190 C.3   109  THR109      0.1862
    124  C         34.5330   26.3640   33.4610 C.2   109  THR109      0.2287
    125  O         35.4220   26.4990   32.5900 O.2   109  THR109     -0.2866
    126  CB        33.5990   24.2080   33.9800 C.3   109  THR109      0.1770
    127  OG1       32.3330   23.6210   34.0260 O.3   109  THR109     -0.2211
    128  CG2       34.1000   24.4240   35.3850 C.3   109  THR109      0.0375
    129  N         14.3730   23.1970   36.8160 N.3   212  LYS212     -0.1245
    130  CA        15.5110   23.1930   37.7530 C.3   212  LYS212      0.1561
    131  C         15.3590   24.3910   38.6970 C.2   212  LYS212      0.2260
    132  O         14.5830   25.3140   38.4380 O.2   212  LYS212     -0.2867
    133  CB        16.8720   23.3110   37.0080 C.3   212  LYS212      0.0271
    134  CG        17.3250   22.1230   36.0870 C.3   212  LYS212      0.0035
    135  CD        16.2060   21.6830   35.0690 C.3   212  LYS212      0.0206
    136  CE        16.6430   20.7120   33.9540 C.3   212  LYS212      0.1093
    137  NZ        17.6210   21.3430   33.0190 N.3   212  LYS212     -0.1314
    138  N         18.9500   27.3130   36.6360 N.3   215  ASP215     -0.1239
    139  CA        19.4920   26.8810   35.3430 C.3   215  ASP215      0.1674
    140  C         18.9890   27.6860   34.1750 C.2   215  ASP215      0.2266
    141  O         17.9720   28.3880   34.2690 O.2   215  ASP215     -0.2867
    142  CB        19.1450   25.4070   35.1000 C.3   215  ASP215      0.1410
    143  CG        20.2020   24.6810   34.3170 C.2   215  ASP215      0.3668
    144  OD1       21.0130   25.3620   33.6850 O.co2 215  ASP215     -0.2456
    145  OD2       20.2010   23.4310   34.3380 O.co2 215  ASP215     -0.2456
@<TRIPOS>BOND
     1     1     2    1
     2     2     5    1
     3     2     3    1
     4     5     6    1
     5   101   100    1
     6   101   102    1
     7     3     4    2
     8    65    66    1
     9   100    99    1
    10     6     7    1
    11    99    96    1
    12    66    69    1
    13    66    67    1
    14   102   103    1
    15     7     8    1
    16    96    97    1
    17    96    95    1
    18    98    97    2
    19    69    70    1
    20    90    89    1
    21     8     9    2
    22    97   104   am
    23    67    68    2
    24    67    74   am
    25    70    71    1
    26    89    86    1
    27    95    93   am
    28     9    10    1
    29     9    11    1
    30    72    71    2
    31    56    55    2
    32    52    51    1
    33    47    48    1
    34    71    73   am
    35    94    93    2
    36    55    54    1
    37    74    75    1
    38    53    54    1
    39    93    92    1
    40   104   105    1
    41    51    48    1
    42    54    57    1
    43    88    87    2
    44    86    87    1
    45    86    85    1
    46    87    91   am
    47    12    13    1
    48    48    49    1
    49   105   106    1
    50   105   108    1
    51   107   106    2
    52    91    92    1
    53    79    78    1
    54    75    78    1
    55    75    76    1
    56   112   113    2
    57   112   111    1
    58   106   110   am
    59    85    83   am
    60   109   108    1
    61    78    80    1
    62   110   111    1
    63    49    50    2
    64    57    58    1
    65    13    16    1
    66    13    14    1
    67    76    77    2
    68    76    81   am
    69   111   114    1
    70    16    17    1
    71    81    82    1
    72    58    60   ar
    73    58    59   ar
    74    60    62   ar
    75    83    84    2
    76    83    82    1
    77   117   119   ar
    78   117   115   ar
    79    18    17    1
    80    18    19    1
    81    15    14    2
    82   114   115    1
    83    59    61   ar
    84    14    23   am
    85    62    63   ar
    86   119   120   ar
    87   115   116   ar
    88    19    20    2
    89    61    63   ar
    90    63    64    1
    91    23    24    1
    92    20    21    1
    93    20    22    1
    94   120   121    1
    95   120   118   ar
    96   116   118   ar
    97   122   123    1
    98    24    25    1
    99    24    27    1
   100    26    25    2
   101    25    28   am
   102   125   124    2
   103    36    38   ar
   104    36    34   ar
   105   137   136    1
   106    38    37   ar
   107   123   124    1
   108   123   126    1
   109    28    29    1
   110    34    33   ar
   111   144   143   ar
   112   136   135    1
   113   126   127    1
   114   126   128    1
   115    37    35   ar
   116    45    44    1
   117    29    30    1
   118    29    32    1
   119   140   141    2
   120   140   139    1
   121   143   145   ar
   122   143   142    1
   123    33    35   ar
   124    33    32    1
   125    44    46    1
   126    44    43    1
   127    30    39   am
   128    30    31    2
   129   135   134    1
   130   142   139    1
   131    39    40    1
   132   139   138    1
   133    43    40    1
   134   134   133    1
   135    40    41    1
   136   129   130    1
   137   133   130    1
   138    41    42    2
   139   130   131    1
   140   132   131    2
