@<TRIPOS>MOLECULE
tmp/2ownB00.pdb
 126 120 0 0 0
SMALL
GASTEIGER

@<TRIPOS>ATOM
      1  N         34.6210   40.8660   16.2620 N.3    39  SER39      -0.1202
      2  CA        34.6960   42.1460   16.9980 C.3    39  SER39       0.2020
      3  C         33.8130   42.1450   18.2550 C.2    39  SER39       0.2618
      4  O         34.2760   42.5880   19.3090 O.2    39  SER39      -0.2717
      5  CB        34.3540   43.3390   16.0820 C.3    39  SER39       0.2103
      6  OG        34.4080   44.5850   16.7570 O.3    39  SER39      -0.2182
      7  N         32.5630   41.6700   18.1340 N.am   40  GLU40      -0.1979
      8  CA        31.6280   41.5720   19.2950 C.3    40  GLU40       0.1602
      9  C         32.1290   40.5750   20.3620 C.2    40  GLU40       0.2287
     10  O         31.9710   40.8450   21.5490 O.2    40  GLU40      -0.2864
     11  CB        30.1710   41.2720   18.8800 C.3    40  GLU40       0.0415
     12  CG        29.4910   42.4470   18.1270 C.3    40  GLU40       0.1163
     13  CD        28.0180   42.2100   17.7400 C.2    40  GLU40       0.3649
     14  OE1       27.3470   41.2960   18.2860 O.co2  40  GLU40      -0.2457
     15  OE2       27.5160   42.9810   16.8870 O.co2  40  GLU40      -0.2457
     16  N         35.0970   42.1440   22.2290 N.3    43  SER43      -0.1217
     17  CA        34.4410   43.1200   23.1190 C.3    43  SER43       0.1889
     18  C         33.7280   42.4540   24.3190 C.2    43  SER43       0.2288
     19  O         33.8390   42.9680   25.4310 O.2    43  SER43      -0.2866
     20  CB        33.4910   44.0350   22.3230 C.3    43  SER43       0.2089
     21  OG        34.1650   44.6050   21.2180 O.3    43  SER43      -0.2183
     22  N         33.3030   44.5750   27.5310 N.3    48  LEU48      -0.1245
     23  CA        32.6130   45.6160   26.7290 C.3    48  LEU48       0.1561
     24  C         31.4070   45.0630   25.9280 C.2    48  LEU48       0.2260
     25  O         31.4080   45.0500   24.6910 O.2    48  LEU48      -0.2867
     26  CB        33.6270   46.3260   25.7960 C.3    48  LEU48       0.0270
     27  CG        34.8330   47.0210   26.4330 C.3    48  LEU48       0.0019
     28  CD1       35.8490   47.4120   25.3660 C.3    48  LEU48       0.0001
     29  CD2       34.3920   48.2260   27.2440 C.3    48  LEU48       0.0001
     30  N         27.2330   44.9010   24.7290 N.3    50  THR50      -0.1218
     31  CA        26.2700   45.8900   24.1820 C.3    50  THR50       0.1862
     32  C         25.4460   46.5980   25.2920 C.2    50  THR50       0.2287
     33  O         25.0720   47.7610   25.1150 O.2    50  THR50      -0.2866
     34  CB        25.3170   45.2670   23.1390 C.3    50  THR50       0.1770
     35  OG1       24.6560   44.1380   23.7230 O.3    50  THR50      -0.2211
     36  CG2       26.0880   44.8130   21.9040 C.3    50  THR50       0.0375
     37  N         28.6210   52.3470   19.4170 N.3    59  TRP59      -0.1241
     38  CA        29.5240   52.3590   18.2530 C.3    59  TRP59       0.1605
     39  C         28.7070   52.2870   16.9540 C.2    59  TRP59       0.2264
     40  O         27.7730   51.4800   16.8560 O.2    59  TRP59      -0.2867
     41  CB        30.5440   51.2150   18.2840 C.3    59  TRP59       0.0550
     42  CG        31.5570   51.3080   19.3720 C.ar   59  TRP59       0.0003
     43  CD1       31.5840   50.6010   20.5380 C.ar   59  TRP59       0.0946
     44  CD2       32.6970   52.1690   19.3940 C.ar   59  TRP59       0.0152
     45  NE1       32.6820   50.9540   21.2850 N.ar   59  TRP59      -0.2442
     46  CE2       33.3860   51.9190   20.6140 C.ar   59  TRP59       0.0810
     47  CE3       33.2140   53.1330   18.4980 C.ar   59  TRP59       0.0012
     48  CZ2       34.5790   52.6060   20.9720 C.ar   59  TRP59       0.0191
     49  CZ3       34.4120   53.8250   18.8440 C.ar   59  TRP59       0.0001
     50  CH2       35.0770   53.5520   20.0790 C.ar   59  TRP59       0.0015
     51  N         41.5230   46.4260   17.5920 N.3    83  GLY83      -0.1225
     52  CA        41.0930   47.8210   17.7990 C.3    83  GLY83       0.1811
     53  C         42.4680   48.4780   17.8250 C.2    83  GLY83       0.2280
     54  O         43.0470   48.6750   18.8880 O.2    83  GLY83      -0.2866
     55  N         43.7850   51.6290   16.7640 N.3    85  ALA85      -0.1245
     56  CA        43.9690   52.9980   17.2800 C.3    85  ALA85       0.1562
     57  C         42.6990   53.8550   17.2900 C.2    85  ALA85       0.2260
     58  O         41.6370   53.4060   16.8390 O.2    85  ALA85      -0.2867
     59  CB        45.0620   53.6870   16.4720 C.3    85  ALA85       0.0290
     60  N         37.5340   55.9820   15.7050 N.3    91  ALA91      -0.1231
     61  CA        38.2250   54.7460   16.1230 C.3    91  ALA91       0.1694
     62  C         38.5760   53.9300   14.8710 C.2    91  ALA91       0.2592
     63  O         37.6990   53.7050   14.0410 O.2    91  ALA91      -0.2718
     64  CB        37.3410   53.9330   17.0450 C.3    91  ALA91       0.0304
     65  N         39.8370   53.4880   14.7590 N.am   92  TYR92      -0.1962
     66  CA        40.3610   52.6970   13.6230 C.3    92  TYR92       0.1771
     67  C         40.4170   51.2040   14.0020 C.2    92  TYR92       0.2619
     68  O         41.1890   50.8410   14.8920 O.2    92  TYR92      -0.2715
     69  CB        41.7380   53.2390   13.2060 C.3    92  TYR92       0.0574
     70  CG        42.4050   52.5140   12.0520 C.ar   92  TYR92      -0.0198
     71  CD1       41.8410   52.5540   10.7530 C.ar   92  TYR92      -0.0009
     72  CD2       43.6350   51.8260   12.2280 C.ar   92  TYR92      -0.0009
     73  CE1       42.4680   51.8850    9.6500 C.ar   92  TYR92       0.0417
     74  CE2       44.2770   51.1580   11.1330 C.ar   92  TYR92       0.0417
     75  CZ        43.6830   51.1930    9.8500 C.ar   92  TYR92       0.1957
     76  OH        44.2990   50.5540    8.8040 O.3    92  TYR92      -0.2866
     77  N         39.6140   50.3680   13.3190 N.am   93  ARG93      -0.1977
     78  CA        39.5260   48.9140   13.5620 C.3    93  ARG93       0.1597
     79  C         39.8730   48.0960   12.3080 C.2    93  ARG93       0.2287
     80  O         39.2940   48.3280   11.2350 O.2    93  ARG93      -0.2864
     81  CB        38.1310   48.5800   14.0810 C.3    93  ARG93       0.0334
     82  CG        37.8510   47.0930   14.3930 C.3    93  ARG93       0.0492
     83  CD        36.5710   46.9180   15.2130 C.3    93  ARG93       0.2205
     84  NE        36.8330   47.2730   16.6120 N.pl3  93  ARG93      -0.0865
     85  CZ        37.1800   46.4390   17.6050 C.cat  93  ARG93       0.5346
     86  NH1       37.2970   45.1100   17.4410 N.pl3  93  ARG93       0.1354
     87  NH2       37.4000   46.9550   18.8190 N.pl3  93  ARG93       0.1354
     88  N         34.9240   54.0030   13.0090 N.3   112  TRP112     -0.1241
     89  CA        33.7560   53.9620   13.9030 C.3   112  TRP112      0.1605
     90  C         33.6620   55.2470   14.7430 C.2   112  TRP112      0.2264
     91  O         34.6970   55.7950   15.1340 O.2   112  TRP112     -0.2867
     92  CB        33.8670   52.7700   14.8480 C.3   112  TRP112      0.0550
     93  CG        33.8950   51.4140   14.2070 C.ar  112  TRP112      0.0003
     94  CD1       34.9620   50.8120   13.5980 C.ar  112  TRP112      0.0946
     95  CD2       32.8290   50.4560   14.1830 C.ar  112  TRP112      0.0152
     96  NE1       34.6130   49.5580   13.1570 N.ar  112  TRP112     -0.2442
     97  CE2       33.3180   49.3020   13.5060 C.ar  112  TRP112      0.0810
     98  CE3       31.4950   50.4600   14.6530 C.ar  112  TRP112      0.0012
     99  CZ2       32.5200   48.1490   13.2770 C.ar  112  TRP112      0.0191
    100  CZ3       30.6850   49.3020   14.4360 C.ar  112  TRP112      0.0001
    101  CH2       31.2140   48.1620   13.7470 C.ar  112  TRP112      0.0015
    102  N         37.3980   52.0180   25.0460 N.3   128  VAL128     -0.1245
    103  CA        38.4720   51.6980   24.0690 C.3   128  VAL128      0.1561
    104  C         39.7480   51.0970   24.7260 C.2   128  VAL128      0.2260
    105  O         40.4100   50.2710   24.0830 O.2   128  VAL128     -0.2867
    106  CB        38.8110   52.9480   23.1980 C.3   128  VAL128      0.0252
    107  CG1       39.8880   52.6610   22.1470 C.3   128  VAL128      0.0019
    108  CG2       37.5730   53.4120   22.4770 C.3   128  VAL128      0.0019
    109  N         40.8620   47.2310   24.6130 N.3   131  TYR131     -0.1241
    110  CA        41.4020   46.7790   23.3100 C.3   131  TYR131      0.1605
    111  C         42.9180   47.0870   23.1600 C.2   131  TYR131      0.2264
    112  O         43.5470   46.5450   22.2440 O.2   131  TYR131     -0.2867
    113  CB        40.6770   47.4230   22.1090 C.3   131  TYR131      0.0534
    114  CG        39.1670   47.3040   22.1060 C.ar  131  TYR131     -0.0201
    115  CD1       38.5320   46.0380   22.1390 C.ar  131  TYR131     -0.0009
    116  CD2       38.3530   48.4590   22.0030 C.ar  131  TYR131     -0.0009
    117  CE1       37.0930   45.9300   22.1320 C.ar  131  TYR131      0.0417
    118  CE2       36.9320   48.3690   21.9760 C.ar  131  TYR131      0.0417
    119  CZ        36.3110   47.1060   22.0330 C.ar  131  TYR131      0.1957
    120  OH        34.9430   47.0460   22.0100 O.3   131  TYR131     -0.2866
    121  N         44.2280   50.0750   22.3420 N.3   133  SER133     -0.1217
    122  CA        44.3180   50.9180   21.1370 C.3   133  SER133      0.1889
    123  C         45.2230   52.1250   21.3970 C.2   133  SER133      0.2288
    124  O         45.1150   52.7270   22.4770 O.2   133  SER133     -0.2866
    125  CB        42.9270   51.4350   20.7340 C.3   133  SER133      0.2089
    126  OG        41.9810   50.3930   20.6060 O.3   133  SER133     -0.2183
@<TRIPOS>BOND
     1    76    75    1
     2    73    75   ar
     3    73    71   ar
     4    75    74   ar
     5    71    70   ar
     6    74    72   ar
     7    80    79    2
     8    70    72   ar
     9    70    69    1
    10    79    78    1
    11    88    89    1
    12    96    97   ar
    13    96    94   ar
    14    69    66    1
    15    99    97   ar
    16    99   101   ar
    17    77    78    1
    18    77    67   am
    19    97    95   ar
    20    78    81    1
    21    94    93   ar
    22    66    67    1
    23    66    65    1
    24   101   100   ar
    25    89    90    1
    26    89    92    1
    27    67    68    2
    28    63    62    2
    29    81    82    1
    30    95    93   ar
    31    95    98   ar
    32    93    92    1
    33    82    83    1
    34   100    98   ar
    35    90    91    2
    36    65    62   am
    37    62    61    1
    38    83    84    1
    39    60    61    1
    40     5     6    1
    41     5     2    1
    42    61    64    1
    43     1     2    1
    44    59    56    1
    45    84    85    2
    46    55    56    1
    47    58    57    2
    48    40    39    2
    49    15    13   ar
    50    39    38    1
    51     2     3    1
    52    56    57    1
    53    86    85    1
    54    51    52    1
    55    85    87    1
    56    13    12    1
    57    13    14   ar
    58    52    53    1
    59    53    54    2
    60    12    11    1
    61     7     3   am
    62     7     8    1
    63    38    41    1
    64    38    37    1
    65     3     4    2
    66    41    42    1
    67    47    49   ar
    68    47    44   ar
    69    49    50   ar
    70    11     8    1
    71     8     9    1
    72    42    44   ar
    73    42    43   ar
    74    44    46   ar
    75    50    48   ar
    76     9    10    2
    77    43    45   ar
    78   126   125    1
    79    46    48   ar
    80    46    45   ar
    81   125   122    1
    82   122   123    1
    83   122   121    1
    84    21    20    1
    85   123   124    2
    86    36    34    1
    87   118   116   ar
    88   118   119   ar
    89   116   114   ar
    90   120   119    1
    91   119   117   ar
    92   114   113    1
    93   114   115   ar
    94   113   110    1
    95   117   115   ar
    96   107   106    1
    97    16    17    1
    98   112   111    2
    99    20    17    1
   100   108   106    1
   101    17    18    1
   102    34    35    1
   103    34    31    1
   104   111   110    1
   105   106   103    1
   106   110   109    1
   107   103   104    1
   108   103   102    1
   109   105   104    2
   110    31    30    1
   111    31    32    1
   112    18    19    2
   113    25    24    2
   114    33    32    2
   115    28    27    1
   116    26    27    1
   117    26    23    1
   118    24    23    1
   119    27    29    1
   120    23    22    1
