@<TRIPOS>MOLECULE
tmp/2owoD00.pdb
 145 135 0 0 0
SMALL
GASTEIGER

@<TRIPOS>ATOM
      1  N         30.6930    4.5500   15.8190 N.3    79  MET79      -0.1230
      2  CA        29.7350    4.6040   14.7250 C.3    79  MET79       0.1702
      3  C         29.5990    6.1060   14.5120 C.2    79  MET79       0.2592
      4  O         28.8310    6.7730   15.1940 O.2    79  MET79      -0.2718
      5  CB        28.3890    3.9980   15.1130 C.3    79  MET79       0.0401
      6  CG        28.3880    2.4770   15.1690 C.3    79  MET79       0.0596
      7  SD        26.7290    1.7880   15.3520 S.3    79  MET79      -0.1393
      8  CE        26.2550    1.5950   13.6460 C.3    79  MET79       0.0692
      9  N         30.3850    6.6350   13.5830 N.am   80  LEU80      -0.1966
     10  CA        30.3950    8.0670   13.3010 C.3    80  LEU80       0.1728
     11  C         29.4120    8.4920   12.2080 C.2    80  LEU80       0.2617
     12  O         28.4930    7.7470   11.8470 O.2    80  LEU80      -0.2715
     13  CB        31.8190    8.4920   12.9220 C.3    80  LEU80       0.0311
     14  CG        32.8900    8.1020   13.9480 C.3    80  LEU80       0.0022
     15  CD1       34.2740    8.1090   13.2980 C.3    80  LEU80       0.0001
     16  CD2       32.8180    9.0510   15.1380 C.3    80  LEU80       0.0001
     17  N         29.6300    9.6950   11.6870 N.am   81  SER81      -0.1936
     18  CA        28.7870   10.2880   10.6640 C.3    81  SER81       0.2055
     19  C         29.5020   10.3310    9.3320 C.2    81  SER81       0.2642
     20  O         30.5400    9.7190    9.1590 O.2    81  SER81      -0.2714
     21  CB        28.4200   11.7200   11.0610 C.3    81  SER81       0.2130
     22  OG        27.6250   11.7440   12.2250 O.3    81  SER81      -0.2179
     23  N         28.9310   11.0890    8.4030 N.am   82  LEU82      -0.1977
     24  CA        29.4960   11.2790    7.0770 C.3    82  LEU82       0.1596
     25  C         29.4410   12.7610    6.7040 C.2    82  LEU82       0.2287
     26  O         28.4790   13.4520    7.0320 O.2    82  LEU82      -0.2864
     27  CB        28.7010   10.4800    6.0460 C.3    82  LEU82       0.0297
     28  CG        29.0210    8.9870    5.9600 C.3    82  LEU82       0.0022
     29  CD1       27.9910    8.2830    5.0900 C.3    82  LEU82       0.0001
     30  CD2       30.4200    8.8040    5.4050 C.3    82  LEU82       0.0001
     31  N         28.8330   15.6390    4.1300 N.3    84  ASN84      -0.1240
     32  CA        27.9550   15.7180    2.9620 C.3    84  ASN84       0.1653
     33  C         28.4610   16.5800    1.8150 C.2    84  ASN84       0.2266
     34  O         29.1590   17.5640    2.0310 O.2    84  ASN84      -0.2867
     35  CB        26.5740   16.2570    3.3700 C.3    84  ASN84       0.1155
     36  CG        25.8810   15.3930    4.4230 C.2    84  ASN84       0.2627
     37  OD1       25.9000   14.1630    4.3450 O.2    84  ASN84      -0.2716
     38  ND2       25.2470   16.0410    5.4010 N.am   84  ASN84      -0.0877
     39  N         27.7210    3.3550   -3.1360 N.3   113  GLU113     -0.1231
     40  CA        26.5240    2.7160   -2.6030 C.3   113  GLU113      0.1699
     41  C         25.3710    3.6890   -2.4500 C.2   113  GLU113      0.2592
     42  O         25.5560    4.9090   -2.4350 O.2   113  GLU113     -0.2718
     43  CB        26.7870    2.1440   -1.2130 C.3   113  GLU113      0.0402
     44  CG        27.7000    0.9600   -1.1350 C.3   113  GLU113      0.1161
     45  CD        27.7530    0.4080    0.2770 C.2   113  GLU113      0.3649
     46  OE1       28.6270    0.8490    1.0520 O.co2 113  GLU113     -0.2457
     47  OE2       26.9050   -0.4480    0.6220 O.co2 113  GLU113     -0.2457
     48  N         24.1810    3.1230   -2.3070 N.am  114  LEU114     -0.1966
     49  CA        22.9800    3.9060   -2.0910 C.3   114  LEU114      0.1728
     50  C         23.0190    4.2890   -0.6230 C.2   114  LEU114      0.2616
     51  O         23.5110    3.5260    0.1970 O.2   114  LEU114     -0.2715
     52  CB        21.7320    3.0590   -2.3290 C.3   114  LEU114      0.0311
     53  CG        21.5580    2.4090   -3.6980 C.3   114  LEU114      0.0022
     54  CD1       20.2960    1.5670   -3.6940 C.3   114  LEU114      0.0001
     55  CD2       21.4940    3.4730   -4.7740 C.3   114  LEU114      0.0001
     56  N         22.5190    5.4680   -0.2820 N.am  115  LYS115     -0.1963
     57  CA        22.4920    5.8440    1.1180 C.3   115  LYS115      0.1728
     58  C         21.0600    5.6230    1.5520 C.2   115  LYS115      0.2616
     59  O         20.1980    6.4830    1.3700 O.2   115  LYS115     -0.2715
     60  CB        22.8800    7.3060    1.3320 C.3   115  LYS115      0.0311
     61  CG        22.9430    7.6770    2.8180 C.3   115  LYS115      0.0038
     62  CD        23.3950    9.1130    3.0320 C.3   115  LYS115      0.0206
     63  CE        23.7100    9.3930    4.4920 C.3   115  LYS115      0.1093
     64  NZ        22.5130    9.2760    5.3930 N.3   115  LYS115     -0.1314
     65  N         20.8140    4.4500    2.1140 N.am  116  LEU116     -0.1977
     66  CA        19.4900    4.0840    2.5680 C.3   116  LEU116      0.1596
     67  C         18.9600    4.9630    3.6910 C.2   116  LEU116      0.2287
     68  O         19.7170    5.4710    4.5150 O.2   116  LEU116     -0.2864
     69  CB        19.4940    2.6180    2.9650 C.3   116  LEU116      0.0297
     70  CG        19.4930    1.7580    1.6990 C.3   116  LEU116      0.0022
     71  CD1       20.6800    0.8080    1.6770 C.3   116  LEU116      0.0001
     72  CD2       18.1660    1.0030    1.6570 C.3   116  LEU116      0.0001
     73  N         20.8080    3.3310   11.4390 N.3   120  ALA120     -0.1245
     74  CA        22.0270    2.5320   11.5010 C.3   120  ALA120      0.1562
     75  C         21.9620    1.4770   12.5900 C.2   120  ALA120      0.2260
     76  O         21.5350    1.7490   13.7080 O.2   120  ALA120     -0.2867
     77  CB        23.2380    3.4290   11.7430 C.3   120  ALA120      0.0290
     78  N         23.3440    3.4270   17.0330 N.3   136  ARG136     -0.1245
     79  CA        24.5380    4.2540   17.1310 C.3   136  ARG136      0.1563
     80  C         24.7250    5.0580   18.4270 C.2   136  ARG136      0.2260
     81  O         25.8530    5.2760   18.8550 O.2   136  ARG136     -0.2867
     82  CB        24.5960    5.2090   15.9280 C.3   136  ARG136      0.0307
     83  CG        25.6630    6.2940   16.0590 C.3   136  ARG136      0.0489
     84  CD        25.7030    7.2080   14.8450 C.3   136  ARG136      0.2205
     85  NE        24.4230    7.8640   14.6060 N.pl3 136  ARG136     -0.0865
     86  CZ        24.2090    8.7160   13.6090 C.cat 136  ARG136      0.5346
     87  NH1       25.2070    8.9960   12.7760 N.pl3 136  ARG136      0.1354
     88  NH2       23.0110    9.2850   13.4480 N.pl3 136  ARG136      0.1354
     89  N         21.9180   -0.6930    7.4160 N.3   173  GLU173     -0.1245
     90  CA        20.6930    0.0310    7.6670 C.3   173  GLU173      0.1567
     91  C         19.4630   -0.8530    7.7530 C.2   173  GLU173      0.2260
     92  O         19.2420   -1.7240    6.9170 O.2   173  GLU173     -0.2867
     93  CB        20.4890    1.0790    6.5790 C.3   173  GLU173      0.0388
     94  CG        21.1320    2.4230    6.9080 C.3   173  GLU173      0.1160
     95  CD        20.0960    3.4890    7.0750 C.2   173  GLU173      0.3649
     96  OE1       19.3220    3.6860    6.1190 O.co2 173  GLU173     -0.2457
     97  OE2       20.0350    4.1290    8.1430 O.co2 173  GLU173     -0.2457
     98  N         26.4300   -2.3020    4.8430 N.3   225  TYR225     -0.1241
     99  CA        27.1760   -1.2790    4.1360 C.3   225  TYR225      0.1605
    100  C         28.6000   -1.2370    4.6400 C.2   225  TYR225      0.2264
    101  O         29.4920   -0.7850    3.9320 O.2   225  TYR225     -0.2867
    102  CB        26.5060    0.1060    4.2370 C.3   225  TYR225      0.0534
    103  CG        26.3360    0.6770    5.6260 C.ar  225  TYR225     -0.0201
    104  CD1       27.4360    1.0030    6.4220 C.ar  225  TYR225     -0.0009
    105  CD2       25.0670    0.8970    6.1450 C.ar  225  TYR225     -0.0009
    106  CE1       27.2650    1.5350    7.7120 C.ar  225  TYR225      0.0417
    107  CE2       24.8810    1.4240    7.4240 C.ar  225  TYR225      0.0417
    108  CZ        25.9780    1.7380    8.2010 C.ar  225  TYR225      0.1957
    109  OH        25.7680    2.2450    9.4620 O.3   225  TYR225     -0.2866
    110  N         26.6380    7.0250   -1.0670 N.3   288  VAL288     -0.1245
    111  CA        27.8640    7.1670   -0.2990 C.3   288  VAL288      0.1561
    112  C         29.0520    6.8040   -1.1810 C.2   288  VAL288      0.2260
    113  O         29.1180    5.7170   -1.7400 O.2   288  VAL288     -0.2867
    114  CB        27.8700    6.2550    0.9450 C.3   288  VAL288      0.0252
    115  CG1       29.1310    6.5080    1.7530 C.3   288  VAL288      0.0019
    116  CG2       26.6180    6.4950    1.7820 C.3   288  VAL288      0.0019
    117  N         33.0070    6.1960   -1.2800 N.3   290  LYS290     -0.1245
    118  CA        34.1060    5.9100   -0.3740 C.3   290  LYS290      0.1561
    119  C         35.3310    5.3060   -1.0600 C.2   290  LYS290      0.2260
    120  O         35.2270    4.6690   -2.1100 O.2   290  LYS290     -0.2867
    121  CB        33.6080    4.9750    0.7350 C.3   290  LYS290      0.0271
    122  CG        33.2750    3.5780    0.2690 C.3   290  LYS290      0.0035
    123  CD        32.5080    2.7700    1.3260 C.3   290  LYS290      0.0206
    124  CE        31.0690    3.2620    1.4530 C.3   290  LYS290      0.1093
    125  NZ        30.2350    2.3900    2.3340 N.3   290  LYS290     -0.1314
    126  N         33.9740   13.8420   13.7600 N.3   305  ARG305     -0.1245
    127  CA        32.6700   13.2380   13.5110 C.3   305  ARG305      0.1563
    128  C         32.5500   12.3480   12.2780 C.2   305  ARG305      0.2260
    129  O         31.4930   11.7580   12.0540 O.2   305  ARG305     -0.2867
    130  CB        31.6100   14.3540   13.4270 C.3   305  ARG305      0.0307
    131  CG        30.2200   13.9720   13.9650 C.3   305  ARG305      0.0489
    132  CD        29.2030   15.1480   13.9310 C.3   305  ARG305      0.2205
    133  NE        28.4060   15.1980   12.7020 N.pl3 305  ARG305     -0.0865
    134  CZ        28.8570   15.5820   11.5070 C.cat 305  ARG305      0.5346
    135  NH1       30.1200   15.9690   11.3500 N.pl3 305  ARG305      0.1354
    136  NH2       28.0390   15.5680   10.4580 N.pl3 305  ARG305      0.1354
    137  N         24.3350   13.7550   -1.2210 N.3   314  LYS314     -0.1245
    138  CA        22.8830   13.8820   -1.1300 C.3   314  LYS314      0.1561
    139  C         22.1950   14.5230   -2.3320 C.2   314  LYS314      0.2260
    140  O         22.8000   15.2830   -3.0840 O.2   314  LYS314     -0.2867
    141  CB        22.5140   14.6400    0.1500 C.3   314  LYS314      0.0271
    142  CG        22.7390   13.8360    1.4300 C.3   314  LYS314      0.0035
    143  CD        22.4790   14.6810    2.6700 C.3   314  LYS314      0.0206
    144  CE        21.5260   13.9980    3.6390 C.3   314  LYS314      0.1093
    145  NZ        22.1090   12.7970    4.2720 N.3   314  LYS314     -0.1314
@<TRIPOS>BOND
     1    55    53    1
     2    53    54    1
     3    53    52    1
     4    39    40    1
     5   140   139    2
     6    40    41    1
     7    40    43    1
     8    41    42    2
     9    41    48   am
    10   139   138    1
    11    52    49    1
    12    48    49    1
    13   120   119    2
    14    49    50    1
    15   113   112    2
    16   117   118    1
    17   137   138    1
    18    43    44    1
    19   112   111    1
    20    44    45    1
    21   138   141    1
    22   110   111    1
    23   119   118    1
    24    50    56   am
    25    50    51    2
    26   118   121    1
    27   111   114    1
    28    56    57    1
    29   141   142    1
    30   122   121    1
    31   122   123    1
    32    45    47   ar
    33    45    46   ar
    34   114   115    1
    35   114   116    1
    36    57    60    1
    37    57    58    1
    38   123   124    1
    39    60    61    1
    40    59    58    2
    41   142   143    1
    42   124   125    1
    43    58    65   am
    44    72    70    1
    45    71    70    1
    46    70    69    1
    47    33    34    2
    48    33    32    1
    49    65    66    1
    50    66    69    1
    51    66    67    1
    52   143   144    1
    53    61    62    1
    54    32    35    1
    55    32    31    1
    56    62    63    1
    57    35    36    1
    58   144   145    1
    59    67    68    2
    60   101   100    2
    61    99   102    1
    62    99   100    1
    63    99    98    1
    64   102   103    1
    65    37    36    2
    66    36    38   am
    67    63    64    1
    68    29    28    1
    69    30    28    1
    70   103   105   ar
    71   103   104   ar
    72    28    27    1
    73    27    24    1
    74    96    95   ar
    75   105   107   ar
    76   104   106   ar
    77    93    94    1
    78    93    90    1
    79    25    26    2
    80    25    24    1
    81    94    95    1
    82    92    91    2
    83    95    97   ar
    84    24    23    1
    85    89    90    1
    86   107   108   ar
    87    90    91    1
    88   106   108   ar
    89   108   109    1
    90    23    19   am
    91    20    19    2
    92    19    18    1
    93   136   134    1
    94    18    21    1
    95    18    17    1
    96    21    22    1
    97   135   134    1
    98    73    74    1
    99    74    77    1
   100    74    75    1
   101   134   133    2
   102    17    11   am
   103    12    11    2
   104   129   128    2
   105    11    10    1
   106   128   127    1
   107    75    76    2
   108   133   132    1
   109    87    86    1
   110    13    10    1
   111    13    14    1
   112    15    14    1
   113    10     9    1
   114   130   127    1
   115   130   131    1
   116    88    86    1
   117   127   126    1
   118     9     3   am
   119    86    85    2
   120     8     7    1
   121   132   131    1
   122    14    16    1
   123     3     2    1
   124     3     4    2
   125    85    84    1
   126     2     5    1
   127     2     1    1
   128    84    83    1
   129     5     6    1
   130     6     7    1
   131    82    83    1
   132    82    79    1
   133    78    79    1
   134    79    80    1
   135    80    81    2
