@<TRIPOS>MOLECULE
tmp/2owwA00.pdb
 185 183 0 0 0
SMALL
GASTEIGER

@<TRIPOS>ATOM
      1  N         61.1050   35.1440   73.9280 N.3    57  SER57      -0.1217
      2  CA        59.8510   34.4000   74.0470 C.3    57  SER57       0.1889
      3  C         59.4220   33.8250   72.7080 C.2    57  SER57       0.2288
      4  O         59.3190   34.5650   71.7310 O.2    57  SER57      -0.2866
      5  CB        58.7240   35.2980   74.5650 C.3    57  SER57       0.2089
      6  OG        57.4900   34.5870   74.6550 O.3    57  SER57      -0.2183
      7  N         56.4670   33.2230   72.1570 N.3    59  TYR59      -0.1227
      8  CA        55.0910   33.7430   72.0150 C.3    59  TYR59       0.1736
      9  C         55.0220   35.1740   71.5070 C.2    59  TYR59       0.2595
     10  O         53.9400   35.7450   71.3870 O.2    59  TYR59      -0.2718
     11  CB        54.3410   33.5950   73.3490 C.3    59  TYR59       0.0548
     12  CG        54.1840   32.1370   73.7110 C.ar   59  TYR59      -0.0200
     13  CD1       55.1520   31.4730   74.4630 C.ar   59  TYR59      -0.0009
     14  CD2       53.1030   31.4050   73.2440 C.ar   59  TYR59      -0.0009
     15  CE1       55.0240   30.1310   74.7550 C.ar   59  TYR59       0.0417
     16  CE2       52.9650   30.0670   73.5420 C.ar   59  TYR59       0.0417
     17  CZ        53.9280   29.4360   74.2860 C.ar   59  TYR59       0.1957
     18  OH        53.7790   28.1090   74.5750 O.3    59  TYR59      -0.2866
     19  N         56.1790   35.7420   71.1770 N.am   60  GLN60      -0.1979
     20  CA        56.2450   37.0680   70.5740 C.3    60  GLN60       0.1601
     21  C         57.2970   37.0360   69.4640 C.2    60  GLN60       0.2287
     22  O         58.4110   37.5160   69.6330 O.2    60  GLN60      -0.2864
     23  CB        56.6020   38.0800   71.6550 C.3    60  GLN60       0.0394
     24  CG        56.2760   39.5010   71.3120 C.3    60  GLN60       0.0908
     25  CD        56.0860   40.3340   72.5550 C.2    60  GLN60       0.2608
     26  OE1       54.9970   40.3480   73.1450 O.2    60  GLN60      -0.2717
     27  NE2       57.1510   41.0160   72.9790 N.am   60  GLN60      -0.0878
     28  N         50.2800   31.0610   69.5050 N.3   215  PRO215     -0.2116
     29  CA        49.5290   32.0900   70.1970 C.3   215  PRO215      0.1372
     30  C         48.3460   32.5720   69.3660 C.2   215  PRO215      0.2244
     31  O         48.4350   32.6100   68.1390 O.2   215  PRO215     -0.2868
     32  CB        50.5480   33.2050   70.3650 C.3   215  PRO215      0.0268
     33  CG        51.5090   32.9910   69.2490 C.3   215  PRO215      0.0207
     34  CD        51.6410   31.5140   69.1790 C.3   215  PRO215      0.0892
     35  N         47.7670   40.6630   83.2710 N.3   256  GLN256     -0.1231
     36  CA        48.8700   40.5570   82.3140 C.3   256  GLN256      0.1698
     37  C         48.5820   41.4880   81.1430 C.2   256  GLN256      0.2592
     38  O         47.5480   41.3580   80.4890 O.2   256  GLN256     -0.2718
     39  CB        49.0420   39.1260   81.8030 C.3   256  GLN256      0.0381
     40  CG        49.2920   38.0900   82.8900 C.3   256  GLN256      0.0905
     41  CD        49.4190   36.6800   82.3400 C.2   256  GLN256      0.2608
     42  OE1       50.4260   36.3280   81.7240 O.2   256  GLN256     -0.2717
     43  NE2       48.4010   35.8620   82.5690 N.am  256  GLN256     -0.0878
     44  N         49.4720   42.4530   80.9160 N.am  257  ARG257     -0.1966
     45  CA        49.3650   43.3550   79.7730 C.3   257  ARG257      0.1729
     46  C         50.3300   42.8780   78.6990 C.2   257  ARG257      0.2616
     47  O         51.4780   43.3220   78.6530 O.2   257  ARG257     -0.2715
     48  CB        49.6890   44.7940   80.1690 C.3   257  ARG257      0.0348
     49  CG        49.4060   45.7970   79.0660 C.3   257  ARG257      0.0492
     50  CD        50.2370   47.0390   79.2400 C.3   257  ARG257      0.2205
     51  NE        49.8970   48.0440   78.2370 N.pl3 257  ARG257     -0.0865
     52  CZ        50.5330   48.2160   77.0820 C.cat 257  ARG257      0.5346
     53  NH1       51.5550   47.4370   76.7210 N.pl3 257  ARG257      0.1354
     54  NH2       50.1150   49.1690   76.2650 N.pl3 257  ARG257      0.1354
     55  N         49.8490   41.9740   77.8440 N.am  258  TRP258     -0.1960
     56  CA        50.7010   41.3020   76.8650 C.3   258  TRP258      0.1771
     57  C         51.2600   42.2420   75.7970 C.2   258  TRP258      0.2620
     58  O         52.3780   42.0460   75.3250 O.2   258  TRP258     -0.2715
     59  CB        49.9420   40.1570   76.1860 C.3   258  TRP258      0.0590
     60  CG        49.6560   38.9830   77.0650 C.ar  258  TRP258      0.0006
     61  CD1       50.3290   38.6120   78.2010 C.ar  258  TRP258      0.0946
     62  CD2       48.6550   37.9810   76.8480 C.ar  258  TRP258      0.0152
     63  NE1       49.7880   37.4560   78.7150 N.ar  258  TRP258     -0.2442
     64  CE2       48.7590   37.0480   77.9070 C.ar  258  TRP258      0.0810
     65  CE3       47.6690   37.7890   75.8730 C.ar  258  TRP258      0.0012
     66  CZ2       47.9160   35.9350   78.0130 C.ar  258  TRP258      0.0191
     67  CZ3       46.8330   36.6800   75.9780 C.ar  258  TRP258      0.0001
     68  CH2       46.9640   35.7690   77.0420 C.ar  258  TRP258      0.0015
     69  N         50.4710   43.2340   75.4000 N.am  259  GLY259     -0.1940
     70  CA        50.9210   44.2470   74.4440 C.3   259  GLY259      0.2014
     71  C         50.6730   43.9530   72.9720 C.2   259  GLY259      0.2638
     72  O         50.8630   44.8340   72.1310 O.2   259  GLY259     -0.2714
     73  N         50.2380   42.7340   72.6500 N.am  260  ASN260     -0.1972
     74  CA        50.0120   42.3440   71.2520 C.3   260  ASN260      0.1688
     75  C         48.9540   43.2000   70.5670 C.2   260  ASN260      0.2292
     76  O         47.9830   43.6200   71.2100 O.2   260  ASN260     -0.2864
     77  CB        49.5440   40.8870   71.1330 C.3   260  ASN260      0.1181
     78  CG        50.4660   39.9120   71.8180 C.2   260  ASN260      0.2629
     79  OD1       50.6360   39.9600   73.0370 O.2   260  ASN260     -0.2716
     80  ND2       51.0490   39.0000   71.0470 N.am  260  ASN260     -0.0877
     81  N         48.1630   23.2390   69.4970 N.3   291  ARG291     -0.1245
     82  CA        47.4640   23.8730   70.5920 C.3   291  ARG291      0.1563
     83  C         47.3760   25.3650   70.3130 C.2   291  ARG291      0.2260
     84  O         48.3040   25.9480   69.7560 O.2   291  ARG291     -0.2867
     85  CB        48.2120   23.6280   71.8990 C.3   291  ARG291      0.0307
     86  CG        47.4200   24.0310   73.1360 C.3   291  ARG291      0.0489
     87  CD        48.2960   24.7380   74.1470 C.3   291  ARG291      0.2205
     88  NE        48.7400   23.8720   75.2350 N.pl3 291  ARG291     -0.0865
     89  CZ        49.7470   24.1510   76.0610 C.cat 291  ARG291      0.5346
     90  NH1       50.4540   25.2670   75.9170 N.pl3 291  ARG291      0.1354
     91  NH2       50.0540   23.3000   77.0310 N.pl3 291  ARG291      0.1354
     92  N         47.1880   28.8720   72.2810 N.3   293  ASP293     -0.1239
     93  CA        47.2900   29.5990   73.5460 C.3   293  ASP293      0.1674
     94  C         46.1400   30.5910   73.5770 C.2   293  ASP293      0.2266
     95  O         45.8550   31.2570   72.5680 O.2   293  ASP293     -0.2867
     96  CB        48.6480   30.3150   73.6160 C.3   293  ASP293      0.1410
     97  CG        48.9600   31.0780   74.9050 C.2   293  ASP293      0.3668
     98  OD1       50.1680   31.4750   75.1060 O.co2 293  ASP293     -0.2456
     99  OD2       48.0850   31.3240   75.7760 O.co2 293  ASP293     -0.2456
    100  N         43.8320   25.6950   74.6910 N.3   340  GLU340     -0.1245
    101  CA        44.3960   26.1480   75.9590 C.3   340  GLU340      0.1567
    102  C         43.2970   26.9270   76.6560 C.2   340  GLU340      0.2260
    103  O         43.0710   28.0970   76.3630 O.2   340  GLU340     -0.2867
    104  CB        45.6410   27.0130   75.7490 C.3   340  GLU340      0.0388
    105  CG        46.4010   27.3530   77.0370 C.3   340  GLU340      0.1160
    106  CD        45.8910   28.6140   77.6860 C.2   340  GLU340      0.3649
    107  OE1       46.0900   29.6930   77.0970 O.co2 340  GLU340     -0.2457
    108  OE2       45.2660   28.5400   78.7630 O.co2 340  GLU340     -0.2457
    109  N         54.8210   25.1810   80.7110 N.3   392  HIS392     -0.1226
    110  CA        55.9970   26.0530   80.6280 C.3   392  HIS392      0.1752
    111  C         55.8200   27.3680   81.4020 C.2   392  HIS392      0.2596
    112  O         56.8080   28.0140   81.7360 O.2   392  HIS392     -0.2718
    113  CB        56.3020   26.3660   79.1620 C.3   392  HIS392      0.0759
    114  CG        55.2210   27.1540   78.4900 C.ar  392  HIS392      0.0818
    115  ND1       54.0840   26.5690   77.9720 N.ar  392  HIS392     -0.2268
    116  CD2       55.0910   28.4860   78.2850 C.ar  392  HIS392      0.1154
    117  CE1       53.3050   27.5090   77.4680 C.ar  392  HIS392      0.1986
    118  NE2       53.8960   28.6810   77.6390 N.ar  392  HIS392     -0.2212
    119  N         54.5710   27.7640   81.6530 N.am  393  ASP393     -0.1974
    120  CA        54.2690   28.9690   82.4400 C.3   393  ASP393      0.1709
    121  C         54.2290   28.7330   83.9480 C.2   393  ASP393      0.2293
    122  O         54.2180   29.6910   84.7200 O.2   393  ASP393     -0.2864
    123  CB        52.9260   29.5620   82.0230 C.3   393  ASP393      0.1436
    124  CG        52.9700   30.1900   80.6540 C.2   393  ASP393      0.3671
    125  OD1       53.9960   30.8390   80.3310 O.co2 393  ASP393     -0.2456
    126  OD2       51.9750   30.0180   79.9140 O.co2 393  ASP393     -0.2456
    127  N         59.3240   29.4460   82.1350 N.3   462  ASN462     -0.1240
    128  CA        58.8330   30.8190   82.1080 C.3   462  ASN462      0.1653
    129  C         58.1290   31.2290   83.4030 C.2   462  ASN462      0.2266
    130  O         57.4120   30.4440   84.0050 O.2   462  ASN462     -0.2867
    131  CB        57.8900   31.0330   80.9350 C.3   462  ASN462      0.1155
    132  CG        57.3800   32.4620   80.8510 C.2   462  ASN462      0.2627
    133  OD1       58.1700   33.4120   80.8300 O.2   462  ASN462     -0.2716
    134  ND2       56.0580   32.6230   80.8130 N.am  462  ASN462     -0.0877
    135  N         55.5580   34.0220   84.1370 N.3   464  PRO464     -0.2102
    136  CA        54.7600   35.0460   83.4600 C.3   464  PRO464      0.1504
    137  C         54.7490   36.3700   84.2040 C.2   464  PRO464      0.2576
    138  O         54.5010   36.3960   85.4050 O.2   464  PRO464     -0.2718
    139  CB        53.3520   34.4370   83.4240 C.3   464  PRO464      0.0282
    140  CG        53.5680   32.9730   83.5380 C.3   464  PRO464      0.0208
    141  CD        54.7580   32.8190   84.4300 C.3   464  PRO464      0.0893
    142  N         55.0150   37.4550   83.4820 N.am  465  GLY465     -0.1943
    143  CA        55.0960   38.7810   84.0800 C.3   465  GLY465      0.2014
    144  C         56.5180   39.2940   84.0880 C.2   465  GLY465      0.2639
    145  O         56.7530   40.4490   83.7420 O.2   465  GLY465     -0.2714
    146  N         57.4600   38.4390   84.4890 N.am  466  ARG466     -0.1963
    147  CA        58.8790   38.7700   84.4140 C.3   466  ARG466      0.1714
    148  C         59.3390   38.8350   82.9580 C.2   466  ARG466      0.2458
    149  O         59.1470   37.8730   82.2130 O.2   466  ARG466     -0.2730
    150  CB        59.7290   37.7190   85.1050 C.3   466  ARG466      0.0347
    151  CG        59.6670   37.6890   86.6210 C.3   466  ARG466      0.0492
    152  CD        60.8920   36.9710   87.2050 C.3   466  ARG466      0.2205
    153  NE        61.5990   36.1830   86.1940 N.pl3 466  ARG466     -0.0865
    154  CZ        62.3580   35.1180   86.4350 C.cat 466  ARG466      0.5346
    155  NH1       62.5700   34.6810   87.6680 N.pl3 466  ARG466      0.1354
    156  NH2       62.9270   34.4960   85.4100 N.pl3 466  ARG466      0.1354
    157  N         59.9380   39.9680   82.5410 N.am  467  PRO467     -0.2727
    158  CA        60.4750   40.0480   81.1670 C.3   467  PRO467      0.1402
    159  C         61.7970   39.3150   80.8850 C.2   467  PRO467      0.2269
    160  O         62.1040   39.0970   79.7090 O.2   467  PRO467     -0.2865
    161  CB        60.6670   41.5660   80.9380 C.3   467  PRO467      0.0296
    162  CG        60.0660   42.2480   82.1110 C.3   467  PRO467      0.0237
    163  CD        60.0760   41.2670   83.2330 C.3   467  PRO467      0.0939
    164  N         63.8580   34.0170   81.3030 N.3   470  ASN470     -0.1225
    165  CA        62.9820   32.9580   80.8200 C.3   470  ASN470      0.1785
    166  C         63.4890   32.2350   79.5700 C.2   470  ASN470      0.2597
    167  O         64.4010   32.7100   78.8830 O.2   470  ASN470     -0.2718
    168  CB        61.6080   33.5480   80.5390 C.3   470  ASN470      0.1169
    169  CG        61.0340   34.2550   81.7410 C.2   470  ASN470      0.2627
    170  OD1       60.9110   33.6600   82.8120 O.2   470  ASN470     -0.2716
    171  ND2       60.6820   35.5280   81.5780 N.am  470  ASN470     -0.0877
    172  N         62.8760   31.0800   79.3100 N.am  471  TRP471     -0.1976
    173  CA        63.1010   30.2490   78.1170 C.3   471  TRP471      0.1640
    174  C         64.5190   29.7150   78.0020 C.2   471  TRP471      0.2290
    175  O         64.9500   29.3240   76.9230 O.2   471  TRP471     -0.2864
    176  CB        62.7230   31.0160   76.8420 C.3   471  TRP471      0.0576
    177  CG        61.5390   31.8900   77.0380 C.ar  471  TRP471      0.0006
    178  CD1       61.5430   33.2510   77.1860 C.ar  471  TRP471      0.0946
    179  CD2       60.1700   31.4760   77.1560 C.ar  471  TRP471      0.0152
    180  NE1       60.2670   33.7030   77.3750 N.ar  471  TRP471     -0.2442
    181  CE2       59.4040   32.6390   77.3680 C.ar  471  TRP471      0.0810
    182  CE3       59.5200   30.2370   77.1030 C.ar  471  TRP471      0.0012
    183  CZ2       58.0180   32.6050   77.5180 C.ar  471  TRP471      0.0191
    184  CZ3       58.1360   30.2050   77.2450 C.ar  471  TRP471      0.0001
    185  CH2       57.4040   31.3780   77.4490 C.ar  471  TRP471      0.0015
@<TRIPOS>BOND
     1    31    30    2
     2    34    33    1
     3    34    28    1
     4    33    32    1
     5    30    29    1
     6    21    22    2
     7    21    20    1
     8    81    82    1
     9    28    29    1
    10    84    83    2
    11    29    32    1
    12    83    82    1
    13    75    76    2
    14    75    74    1
    15    20    19    1
    16    20    23    1
    17    82    85    1
    18    80    78   am
    19    77    74    1
    20    77    78    1
    21    19     9   am
    22    74    73    1
    23    24    23    1
    24    24    25    1
    25    10     9    2
    26     9     8    1
    27     4     3    2
    28    78    79    2
    29    85    86    1
    30     8     7    1
    31     8    11    1
    32    72    71    2
    33    92    93    1
    34    25    27   am
    35    25    26    2
    36    95    94    2
    37    73    71   am
    38     3     2    1
    39    71    70    1
    40    86    87    1
    41    14    16   ar
    42    14    12   ar
    43    11    12    1
    44    16    17   ar
    45    93    94    1
    46    93    96    1
    47    96    97    1
    48    12    13   ar
    49     1     2    1
    50     2     5    1
    51    87    88    1
    52    17    18    1
    53    17    15   ar
    54    70    69    1
    55    13    15   ar
    56     5     6    1
    57   100   101    1
    58    97    98   ar
    59    97    99   ar
    60    88    89    2
    61    58    57    2
    62    69    57   am
    63   104   101    1
    64   104   105    1
    65    57    56    1
    66    65    67   ar
    67    65    62   ar
    68    90    89    1
    69   101   102    1
    70    67    68   ar
    71    89    91    1
    72    59    56    1
    73    59    60    1
    74    54    52    1
    75   103   102    2
    76    53    52    1
    77   176   177    1
    78   176   173    1
    79    62    60   ar
    80    62    64   ar
    81    56    55    1
    82   175   174    2
    83   105   106    1
    84   177   179   ar
    85   177   178   ar
    86    68    66   ar
    87    60    61   ar
    88    52    51    2
    89   107   106   ar
    90   182   179   ar
    91   182   184   ar
    92   179   181   ar
    93   178   180   ar
    94   184   185   ar
    95   181   180   ar
    96   181   183   ar
    97   185   183   ar
    98   117   118   ar
    99   117   115   ar
   100   118   116   ar
   101   106   108   ar
   102    55    46   am
   103    64    66   ar
   104    64    63   ar
   105   115   114   ar
   106   174   173    1
   107   173   172    1
   108    61    63   ar
   109    51    50    1
   110   116   114   ar
   111   114   113    1
   112    47    46    2
   113    46    45    1
   114   167   166    2
   115    49    50    1
   116    49    48    1
   117   113   110    1
   118   172   166   am
   119   166   165    1
   120   160   159    2
   121    45    48    1
   122    45    44    1
   123   126   124   ar
   124   125   124   ar
   125    38    37    2
   126   168   165    1
   127   168   169    1
   128   110   109    1
   129   110   111    1
   130   124   123    1
   131   134   132   am
   132   165   164    1
   133   133   132    2
   134   132   131    1
   135   159   158    1
   136    44    37   am
   137   131   128    1
   138   161   158    1
   139   161   162    1
   140    37    36    1
   141   158   157    1
   142   111   119   am
   143   111   112    2
   144   171   169   am
   145   119   120    1
   146    42    41    2
   147   169   170    2
   148    39    36    1
   149    39    40    1
   150   123   120    1
   151   128   127    1
   152   128   129    1
   153   162   163    1
   154   149   148    2
   155    36    35    1
   156    41    43   am
   157    41    40    1
   158   120   121    1
   159   157   148   am
   160   157   163    1
   161   148   147    1
   162   129   130    2
   163   139   136    1
   164   139   140    1
   165   136   135    1
   166   136   137    1
   167   142   143    1
   168   142   137   am
   169   140   141    1
   170   145   144    2
   171   121   122    2
   172   143   144    1
   173   144   146   am
   174   135   141    1
   175   137   138    2
   176   147   146    1
   177   147   150    1
   178   150   151    1
   179   156   154    1
   180   153   154    2
   181   153   152    1
   182   154   155    1
   183   151   152    1
