@<TRIPOS>MOLECULE
tmp/2owwA01.pdb
 121 115 0 0 0
SMALL
GASTEIGER

@<TRIPOS>ATOM
      1  N         45.0950   39.8580   79.8150 N.3   246  VAL246     -0.1245
      2  CA        44.0390   39.2900   80.6570 C.3   246  VAL246      0.1561
      3  C         43.8010   40.1780   81.8790 C.2   246  VAL246      0.2260
      4  O         44.7540   40.7280   82.4370 O.2   246  VAL246     -0.2867
      5  CB        44.3530   37.8380   81.1110 C.3   246  VAL246      0.0252
      6  CG1       44.0100   36.8480   80.0020 C.3   246  VAL246      0.0019
      7  CG2       45.8030   37.6930   81.5200 C.3   246  VAL246      0.0019
      8  N         43.5840   39.3450   87.5150 N.3   249  ASP249     -0.1239
      9  CA        43.2870   37.9680   87.8940 C.3   249  ASP249      0.1674
     10  C         43.1720   37.8340   89.4100 C.2   249  ASP249      0.2266
     11  O         43.4310   38.7810   90.1660 O.2   249  ASP249     -0.2867
     12  CB        44.3640   37.0050   87.3590 C.3   249  ASP249      0.1410
     13  CG        43.8990   36.2160   86.1400 C.2   249  ASP249      0.3668
     14  OD1       43.7060   36.8390   85.0590 O.co2 249  ASP249     -0.2456
     15  OD2       43.7410   34.9710   86.2620 O.co2 249  ASP249     -0.2456
     16  N         45.2400   35.6250   90.4510 N.3   251  PHE251     -0.1241
     17  CA        46.7110   35.5970   90.4530 C.3   251  PHE251      0.1605
     18  C         47.3110   37.0160   90.4270 C.2   251  PHE251      0.2264
     19  O         47.7690   37.5170   91.4610 O.2   251  PHE251     -0.2867
     20  CB        47.2620   34.7640   89.2730 C.3   251  PHE251      0.0534
     21  CG        46.6580   33.3850   89.1450 C.ar  251  PHE251     -0.0203
     22  CD1       45.5280   33.1790   88.3580 C.ar  251  PHE251     -0.0042
     23  CD2       47.2350   32.2870   89.7820 C.ar  251  PHE251     -0.0042
     24  CE1       44.9650   31.9050   88.2190 C.ar  251  PHE251     -0.0003
     25  CE2       46.6810   31.0090   89.6490 C.ar  251  PHE251     -0.0003
     26  CZ        45.5440   30.8180   88.8660 C.ar  251  PHE251     -0.0000
     27  N         47.7670   40.6630   83.2710 N.3   256  GLN256     -0.1245
     28  CA        48.8700   40.5570   82.3140 C.3   256  GLN256      0.1566
     29  C         48.5820   41.4880   81.1430 C.2   256  GLN256      0.2260
     30  O         47.5480   41.3580   80.4890 O.2   256  GLN256     -0.2867
     31  CB        49.0420   39.1260   81.8030 C.3   256  GLN256      0.0367
     32  CG        49.2920   38.0900   82.8900 C.3   256  GLN256      0.0905
     33  CD        49.4190   36.6800   82.3400 C.2   256  GLN256      0.2608
     34  OE1       50.4260   36.3280   81.7240 O.2   256  GLN256     -0.2717
     35  NE2       48.4010   35.8620   82.5690 N.am  256  GLN256     -0.0878
     36  N         49.8490   41.9740   77.8440 N.3   258  TRP258     -0.1241
     37  CA        50.7010   41.3020   76.8650 C.3   258  TRP258      0.1605
     38  C         51.2600   42.2420   75.7970 C.2   258  TRP258      0.2264
     39  O         52.3780   42.0460   75.3250 O.2   258  TRP258     -0.2867
     40  CB        49.9420   40.1570   76.1860 C.3   258  TRP258      0.0550
     41  CG        49.6560   38.9830   77.0650 C.ar  258  TRP258      0.0003
     42  CD1       50.3290   38.6120   78.2010 C.ar  258  TRP258      0.0946
     43  CD2       48.6550   37.9810   76.8480 C.ar  258  TRP258      0.0152
     44  NE1       49.7880   37.4560   78.7150 N.ar  258  TRP258     -0.2442
     45  CE2       48.7590   37.0480   77.9070 C.ar  258  TRP258      0.0810
     46  CE3       47.6690   37.7890   75.8730 C.ar  258  TRP258      0.0012
     47  CZ2       47.9160   35.9350   78.0130 C.ar  258  TRP258      0.0191
     48  CZ3       46.8330   36.6800   75.9780 C.ar  258  TRP258      0.0001
     49  CH2       46.9640   35.7690   77.0420 C.ar  258  TRP258      0.0015
     50  N         47.1880   28.8720   72.2810 N.3   293  ASP293     -0.1225
     51  CA        47.2900   29.5990   73.5460 C.3   293  ASP293      0.1805
     52  C         46.1400   30.5910   73.5770 C.2   293  ASP293      0.2597
     53  O         45.8550   31.2570   72.5680 O.2   293  ASP293     -0.2718
     54  CB        48.6480   30.3150   73.6160 C.3   293  ASP293      0.1424
     55  CG        48.9600   31.0780   74.9050 C.2   293  ASP293      0.3668
     56  OD1       50.1680   31.4750   75.1060 O.co2 293  ASP293     -0.2456
     57  OD2       48.0850   31.3240   75.7760 O.co2 293  ASP293     -0.2456
     58  N         45.4760   30.6730   74.7320 N.am  294  HIS294     -0.1975
     59  CA        44.3910   31.6250   74.9810 C.3   294  HIS294      0.1656
     60  C         43.1830   31.4300   74.0580 C.2   294  HIS294      0.2291
     61  O         42.6820   32.3680   73.4490 O.2   294  HIS294     -0.2864
     62  CB        44.9040   33.0680   74.9550 C.3   294  HIS294      0.0771
     63  CG        44.0330   34.0210   75.7070 C.ar  294  HIS294      0.0820
     64  ND1       43.7600   33.8710   77.0520 N.ar  294  HIS294     -0.2267
     65  CD2       43.3650   35.1300   75.3060 C.ar  294  HIS294      0.1154
     66  CE1       42.9650   34.8510   77.4460 C.ar  294  HIS294      0.1986
     67  NE2       42.7040   35.6230   76.4050 N.ar  294  HIS294     -0.2212
     68  N         40.1230   31.0160   74.6290 N.3   296  ARG296     -0.1245
     69  CA        38.9510   31.8100   75.0170 C.3   296  ARG296      0.1563
     70  C         38.8480   33.1200   74.2340 C.2   296  ARG296      0.2260
     71  O         37.7550   33.6520   74.0500 O.2   296  ARG296     -0.2867
     72  CB        38.9440   32.0580   76.5380 C.3   296  ARG296      0.0307
     73  CG        39.9580   33.0980   77.0380 C.3   296  ARG296      0.0489
     74  CD        39.3250   34.4730   77.2650 C.3   296  ARG296      0.2205
     75  NE        38.2840   34.4120   78.2930 N.pl3 296  ARG296     -0.0865
     76  CZ        36.9720   34.5750   78.0970 C.cat 296  ARG296      0.5346
     77  NH1       36.4560   34.8390   76.8980 N.pl3 296  ARG296      0.1354
     78  NH2       36.1550   34.4720   79.1370 N.pl3 296  ARG296      0.1354
     79  N         43.8320   25.6950   74.6910 N.3   340  GLU340     -0.1245
     80  CA        44.3960   26.1480   75.9590 C.3   340  GLU340      0.1567
     81  C         43.2970   26.9270   76.6560 C.2   340  GLU340      0.2260
     82  O         43.0710   28.0970   76.3630 O.2   340  GLU340     -0.2867
     83  CB        45.6410   27.0130   75.7490 C.3   340  GLU340      0.0388
     84  CG        46.4010   27.3530   77.0370 C.3   340  GLU340      0.1160
     85  CD        45.8910   28.6140   77.6860 C.2   340  GLU340      0.3649
     86  OE1       46.0900   29.6930   77.0970 O.co2 340  GLU340     -0.2457
     87  OE2       45.2660   28.5400   78.7630 O.co2 340  GLU340     -0.2457
     88  N         42.7560   27.5440   80.0320 N.3   342  LEU342     -0.1231
     89  CA        43.0610   27.8750   81.4110 C.3   342  LEU342      0.1693
     90  C         42.7790   29.3580   81.6170 C.2   342  LEU342      0.2593
     91  O         42.7530   30.1440   80.6600 O.2   342  LEU342     -0.2718
     92  CB        44.5190   27.5720   81.7400 C.3   342  LEU342      0.0284
     93  CG        45.0620   26.2240   81.2890 C.3   342  LEU342      0.0019
     94  CD1       46.5840   26.2400   81.3800 C.3   342  LEU342      0.0001
     95  CD2       44.4710   25.1040   82.1260 C.3   342  LEU342      0.0001
     96  N         42.5770   29.7230   82.8740 N.am  343  GLY343     -0.1942
     97  CA        42.2430   31.0800   83.2500 C.3   343  GLY343      0.2014
     98  C         40.7620   31.1580   83.5290 C.2   343  GLY343      0.2638
     99  O         40.1270   30.1480   83.8470 O.2   343  GLY343     -0.2714
    100  N         40.2140   32.3590   83.3830 N.am  344  VAL344     -0.1977
    101  CA        38.8030   32.6020   83.5950 C.3   344  VAL344      0.1596
    102  C         38.0350   32.0720   82.3860 C.2   344  VAL344      0.2287
    103  O         38.1040   32.6440   81.2990 O.2   344  VAL344     -0.2864
    104  CB        38.5240   34.1110   83.8030 C.3   344  VAL344      0.0276
    105  CG1       37.0470   34.3580   84.0880 C.3   344  VAL344      0.0022
    106  CG2       39.3880   34.6590   84.9450 C.3   344  VAL344      0.0022
    107  N         54.5710   27.7640   81.6530 N.3   393  ASP393     -0.1239
    108  CA        54.2690   28.9690   82.4400 C.3   393  ASP393      0.1674
    109  C         54.2290   28.7330   83.9480 C.2   393  ASP393      0.2266
    110  O         54.2180   29.6910   84.7200 O.2   393  ASP393     -0.2867
    111  CB        52.9260   29.5620   82.0230 C.3   393  ASP393      0.1410
    112  CG        52.9700   30.1900   80.6540 C.2   393  ASP393      0.3668
    113  OD1       53.9960   30.8390   80.3310 O.co2 393  ASP393     -0.2456
    114  OD2       51.9750   30.0180   79.9140 O.co2 393  ASP393     -0.2456
    115  N         55.5580   34.0220   84.1370 N.3   464  PRO464     -0.2116
    116  CA        54.7600   35.0460   83.4600 C.3   464  PRO464      0.1372
    117  C         54.7490   36.3700   84.2040 C.2   464  PRO464      0.2244
    118  O         54.5010   36.3960   85.4050 O.2   464  PRO464     -0.2868
    119  CB        53.3520   34.4370   83.4240 C.3   464  PRO464      0.0268
    120  CG        53.5680   32.9730   83.5380 C.3   464  PRO464      0.0207
    121  CD        54.7580   32.8190   84.4300 C.3   464  PRO464      0.0892
@<TRIPOS>BOND
     1    50    51    1
     2    53    52    2
     3    61    60    2
     4    51    52    1
     5    51    54    1
     6    52    58   am
     7    54    55    1
     8    71    70    2
     9    60    59    1
    10    70    69    1
    11    68    69    1
    12    79    80    1
    13    58    59    1
    14    55    56   ar
    15    55    57   ar
    16    62    59    1
    17    62    63    1
    18    69    72    1
    19    65    63   ar
    20    65    67   ar
    21    39    38    2
    22    63    64   ar
    23    83    80    1
    24    83    84    1
    25    38    37    1
    26    46    48   ar
    27    46    43   ar
    28    80    81    1
    29    48    49   ar
    30    40    37    1
    31    40    41    1
    32    82    81    2
    33    67    66   ar
    34    72    73    1
    35    43    41   ar
    36    43    45   ar
    37    37    36    1
    38    77    76    1
    39    84    85    1
    40    73    74    1
    41    49    47   ar
    42    64    66   ar
    43    41    42   ar
    44    86    85   ar
    45    74    75    1
    46    85    87   ar
    47    45    47   ar
    48    45    44   ar
    49    76    75    2
    50    76    78    1
    51    42    44   ar
    52     1     2    1
    53   114   112   ar
    54     6     5    1
    55    88    89    1
    56   113   112   ar
    57    30    29    2
    58   112   111    1
    59     2     5    1
    60     2     3    1
    61    91    90    2
    62     5     7    1
    63    29    28    1
    64    93    94    1
    65    93    92    1
    66    93    95    1
    67   103   102    2
    68    89    90    1
    69    89    92    1
    70    90    96   am
    71   107   108    1
    72    34    33    2
    73    31    28    1
    74    31    32    1
    75     3     4    2
    76   111   108    1
    77    28    27    1
    78    33    35   am
    79    33    32    1
    80   102   101    1
    81   108   109    1
    82    96    97    1
    83    97    98    1
    84   100    98   am
    85   100   101    1
    86   119   116    1
    87   119   120    1
    88   116   115    1
    89   116   117    1
    90    98    99    2
    91   120   121    1
    92   101   104    1
    93   104   105    1
    94   104   106    1
    95   109   110    2
    96   115   121    1
    97   117   118    2
    98    14    13   ar
    99    13    15   ar
   100    13    12    1
   101    12     9    1
   102     8     9    1
   103     9    10    1
   104    24    22   ar
   105    24    26   ar
   106    22    21   ar
   107    26    25   ar
   108    21    20    1
   109    21    23   ar
   110    20    17    1
   111    10    11    2
   112    25    23   ar
   113    18    17    1
   114    18    19    2
   115    16    17    1
