@<TRIPOS>MOLECULE
tmp/2owzA00.pdb
 137 129 0 0 0
SMALL
GASTEIGER

@<TRIPOS>ATOM
      1  N         14.3160   17.6130   20.7540 N.3    71  GLU71      -0.1245
      2  CA        14.6400   16.9730   22.0220 C.3    71  GLU71       0.1567
      3  C         15.9810   16.2530   21.8680 C.2    71  GLU71       0.2260
      4  O         16.7070   16.0330   22.8400 O.2    71  GLU71      -0.2867
      5  CB        13.5390   15.9730   22.3910 C.3    71  GLU71       0.0388
      6  CG        13.5530   15.5290   23.8510 C.3    71  GLU71       0.1160
      7  CD        12.3540   14.6640   24.2110 C.2    71  GLU71       0.3649
      8  OE1       12.4180   13.4300   24.0160 O.co2  71  GLU71      -0.2457
      9  OE2       11.3400   15.2230   24.6800 O.co2  71  GLU71      -0.2457
     10  N          9.5220   16.6880   19.3460 N.3    91  ASP91      -0.1239
     11  CA         9.9820   15.4440   19.9430 C.3    91  ASP91       0.1674
     12  C          9.7530   14.5050   18.7570 C.2    91  ASP91       0.2266
     13  O          8.6550   13.9790   18.5740 O.2    91  ASP91      -0.2867
     14  CB         9.1010   15.0250   21.1220 C.3    91  ASP91       0.1410
     15  CG         9.6550   13.8170   21.8620 C.2    91  ASP91       0.3668
     16  OD1        9.0050   13.3520   22.8290 O.co2  91  ASP91      -0.2456
     17  OD2       10.7420   13.3300   21.4820 O.co2  91  ASP91      -0.2456
     18  N          8.5940   10.1490   20.2130 N.3    94  ASP94      -0.1225
     19  CA         8.1890    9.9500   21.5950 C.3    94  ASP94       0.1805
     20  C          7.8250    8.4960   21.8780 C.2    94  ASP94       0.2598
     21  O          6.9070    7.9500   21.2600 O.2    94  ASP94      -0.2718
     22  CB         6.9720   10.8230   21.8900 C.3    94  ASP94       0.1424
     23  CG         6.1900   10.3430   23.0970 C.2    94  ASP94       0.3668
     24  OD1        6.5910   10.6800   24.2280 O.co2  94  ASP94      -0.2456
     25  OD2        5.1850    9.6180   22.9100 O.co2  94  ASP94      -0.2456
     26  N          8.5260    7.8700   22.8180 N.am   95  GLY95      -0.1942
     27  CA         8.2110    6.4910   23.1550 C.3    95  GLY95       0.2014
     28  C          9.2450    5.5150   22.6430 C.2    95  GLY95       0.2640
     29  O          8.9140    4.4400   22.1370 O.2    95  GLY95      -0.2714
     30  N         10.5060    5.9070   22.7880 N.am   96  SER96      -0.1935
     31  CA        11.6530    5.1240   22.3480 C.3    96  SER96       0.2055
     32  C         11.5810    3.6310   22.6640 C.2    96  SER96       0.2643
     33  O         11.8310    2.8000   21.7930 O.2    96  SER96      -0.2714
     34  CB        12.9310    5.7050   22.9630 C.3    96  SER96       0.2130
     35  OG        12.8660    5.6860   24.3820 O.3    96  SER96      -0.2179
     36  N         11.2380    3.2970   23.9050 N.am   97  SER97      -0.1949
     37  CA        11.1680    1.9000   24.3350 C.3    97  SER97       0.1924
     38  C         10.0880    1.0450   23.6710 C.2    97  SER97       0.2314
     39  O          9.9250   -0.1230   24.0260 O.2    97  SER97      -0.2863
     40  CB        10.9860    1.8310   25.8570 C.3    97  SER97       0.2116
     41  OG         9.7370    2.3730   26.2680 O.3    97  SER97      -0.2180
     42  N          3.3720    5.0150   35.6610 N.3   185  ASN185     -0.1240
     43  CA         4.2830    3.8850   35.8110 C.3   185  ASN185      0.1653
     44  C          4.2890    3.5680   37.3050 C.2   185  ASN185      0.2266
     45  O          5.1010    4.1040   38.0570 O.2   185  ASN185     -0.2867
     46  CB         5.6900    4.2830   35.3520 C.3   185  ASN185      0.1155
     47  CG         6.6670    3.1210   35.3750 C.2   185  ASN185      0.2627
     48  OD1        6.5200    2.1810   36.1600 O.2   185  ASN185     -0.2716
     49  ND2        7.6800    3.1880   34.5210 N.am  185  ASN185     -0.0877
     50  N          7.2510    2.7630   39.9850 N.3   188  ASN188     -0.1240
     51  CA         7.9860    3.8550   40.6430 C.3   188  ASN188      0.1653
     52  C          7.2370    4.4020   41.8560 C.2   188  ASN188      0.2266
     53  O          7.4990    5.5140   42.2980 O.2   188  ASN188     -0.2867
     54  CB         8.1940    5.0190   39.6640 C.3   188  ASN188      0.1155
     55  CG         9.2470    4.7340   38.6150 C.2   188  ASN188      0.2627
     56  OD1        9.2870    5.3870   37.5660 O.2   188  ASN188     -0.2716
     57  ND2       10.1180    3.7710   38.8960 N.am  188  ASN188     -0.0877
     58  N         -1.3320    1.8630   30.7950 N.3   218  TYR218     -0.1241
     59  CA        -0.0800    2.5790   30.6290 C.3   218  TYR218      0.1605
     60  C          0.7180    1.8850   29.5340 C.2   218  TYR218      0.2264
     61  O          1.3250    0.8370   29.7550 O.2   218  TYR218     -0.2867
     62  CB         0.6870    2.5980   31.9500 C.3   218  TYR218      0.0534
     63  CG         1.7920    3.6280   31.9900 C.ar  218  TYR218     -0.0201
     64  CD1        1.5040    4.9970   31.9550 C.ar  218  TYR218     -0.0009
     65  CD2        3.1310    3.2390   32.0450 C.ar  218  TYR218     -0.0009
     66  CE1        2.5240    5.9500   31.9730 C.ar  218  TYR218      0.0417
     67  CE2        4.1560    4.1820   32.0650 C.ar  218  TYR218      0.0417
     68  CZ         3.8470    5.5300   32.0280 C.ar  218  TYR218      0.1957
     69  OH         4.8660    6.4500   32.0510 O.3   218  TYR218     -0.2866
     70  N          3.2940    3.3310   27.7860 N.3   220  GLY220     -0.1210
     71  CA         4.7140    3.6380   27.8120 C.3   220  GLY220      0.1956
     72  C          5.0710    4.6690   26.7600 C.2   220  GLY220      0.2613
     73  O          6.2420    4.9780   26.5270 O.2   220  GLY220     -0.2717
     74  N          4.0480    5.1860   26.0950 N.am  221  SER221     -0.1938
     75  CA         4.2480    6.2160   25.0940 C.3   221  SER221      0.2055
     76  C          3.3030    7.3590   25.4260 C.2   221  SER221      0.2642
     77  O          2.0820    7.1810   25.4050 O.2   221  SER221     -0.2714
     78  CB         3.9440    5.6740   23.6990 C.3   221  SER221      0.2130
     79  OG         3.9070    6.7390   22.7640 O.3   221  SER221     -0.2179
     80  N          3.8570    8.5260   25.7450 N.am  222  LEU222     -0.1977
     81  CA         3.0280    9.6880   26.0870 C.3   222  LEU222      0.1596
     82  C          1.9320    9.9460   25.0460 C.2   222  LEU222      0.2287
     83  O          0.7710   10.1640   25.3930 O.2   222  LEU222     -0.2864
     84  CB         3.9000   10.9460   26.2450 C.3   222  LEU222      0.0297
     85  CG         3.1590   12.2870   26.3180 C.3   222  LEU222      0.0022
     86  CD1        2.1960   12.3150   27.5070 C.3   222  LEU222      0.0001
     87  CD2        4.1700   13.4080   26.4300 C.3   222  LEU222      0.0001
     88  N         -3.2110   11.1110   32.6390 N.3   236  TYR236     -0.1241
     89  CA        -1.8520   10.5980   32.4900 C.3   236  TYR236      0.1605
     90  C         -0.9710   11.3350   33.4870 C.2   236  TYR236      0.2264
     91  O         -1.0490   12.5610   33.6090 O.2   236  TYR236     -0.2867
     92  CB        -1.3430   10.8210   31.0610 C.3   236  TYR236      0.0534
     93  CG         0.1510   10.6540   30.8820 C.ar  236  TYR236     -0.0201
     94  CD1        1.0350   11.6480   31.3020 C.ar  236  TYR236     -0.0009
     95  CD2        0.6820    9.5150   30.2710 C.ar  236  TYR236     -0.0009
     96  CE1        2.3940   11.5210   31.1190 C.ar  236  TYR236      0.0417
     97  CE2        2.0590    9.3780   30.0800 C.ar  236  TYR236      0.0417
     98  CZ         2.9080   10.3900   30.5070 C.ar  236  TYR236      0.1957
     99  OH         4.2700   10.2920   30.3140 O.3   236  TYR236     -0.2866
    100  N          3.0930   11.7450   35.2460 N.3   238  TYR238     -0.1241
    101  CA         4.5290   11.5120   35.2710 C.3   238  TYR238      0.1605
    102  C          5.1040   12.5630   36.2140 C.2   238  TYR238      0.2264
    103  O          5.5360   13.6430   35.7850 O.2   238  TYR238     -0.2867
    104  CB         5.1960   11.6360   33.8940 C.3   238  TYR238      0.0534
    105  CG         6.4650   10.8100   33.8580 C.ar  238  TYR238     -0.0201
    106  CD1        7.4040   10.9120   34.8920 C.ar  238  TYR238     -0.0009
    107  CD2        6.6710    9.8390   32.8740 C.ar  238  TYR238     -0.0009
    108  CE1        8.5010   10.0660   34.9610 C.ar  238  TYR238      0.0417
    109  CE2        7.7750    8.9810   32.9330 C.ar  238  TYR238      0.0417
    110  CZ         8.6800    9.0990   33.9850 C.ar  238  TYR238      0.1957
    111  OH         9.7410    8.2310   34.0900 O.3   238  TYR238     -0.2866
    112  N         10.3390   13.7400   34.3030 N.3   248  LYS248     -0.1231
    113  CA        11.1320   13.2550   33.1850 C.3   248  LYS248      0.1693
    114  C         10.8350   14.0100   31.8970 C.2   248  LYS248      0.2591
    115  O         11.7260   14.2560   31.0860 O.2   248  LYS248     -0.2718
    116  CB        10.8710   11.7640   32.9690 C.3   248  LYS248      0.0285
    117  CG        11.5520   11.2000   31.7280 C.3   248  LYS248      0.0035
    118  CD        11.1520    9.7560   31.4650 C.3   248  LYS248      0.0206
    119  CE        11.6850    9.2750   30.1200 C.3   248  LYS248      0.1093
    120  NZ        11.2450    7.8870   29.8040 N.3   248  LYS248     -0.1314
    121  N          9.5790   14.3870   31.7160 N.am  249  LEU249     -0.1980
    122  CA         9.1620   15.0710   30.5060 C.3   249  LEU249      0.1596
    123  C          9.7380   16.4660   30.3290 C.2   249  LEU249      0.2287
    124  O          9.8970   17.2100   31.2960 O.2   249  LEU249     -0.2864
    125  CB         7.6380   15.1390   30.4600 C.3   249  LEU249      0.0297
    126  CG         6.9010   13.8030   30.5700 C.3   249  LEU249      0.0022
    127  CD1        5.4090   14.0450   30.4060 C.3   249  LEU249      0.0001
    128  CD2        7.4020   12.8460   29.4960 C.3   249  LEU249      0.0001
    129  N          7.4700   18.4420   25.1160 N.3   254  GLU254     -0.1245
    130  CA         6.4070   17.4990   25.4360 C.3   254  GLU254      0.1567
    131  C          5.2270   18.0760   26.2110 C.2   254  GLU254      0.2260
    132  O          4.0830   17.9970   25.7530 O.2   254  GLU254     -0.2867
    133  CB         7.0080   16.3090   26.1940 C.3   254  GLU254      0.0388
    134  CG         7.8520   15.4010   25.3030 C.3   254  GLU254      0.1160
    135  CD         8.8040   14.5030   26.0760 C.2   254  GLU254      0.3649
    136  OE1        9.0910   13.3880   25.5940 O.co2 254  GLU254     -0.2457
    137  OE2        9.2810   14.9100   27.1510 O.co2 254  GLU254     -0.2457
@<TRIPOS>BOND
     1    13    12    2
     2    12    11    1
     3    10    11    1
     4    11    14    1
     5    18    19    1
     6     1     2    1
     7    14    15    1
     8    21    20    2
     9    17    15   ar
    10    19    20    1
    11    19    22    1
    12    33    32    2
    13    15    16   ar
    14     3     2    1
    15     3     4    2
    16    20    26   am
    17    22    23    1
    18     2     5    1
    19    29    28    2
    20    31    32    1
    21    31    30    1
    22    31    34    1
    23     5     6    1
    24    28    30   am
    25    28    27    1
    26    32    36   am
    27    79    78    1
    28    26    27    1
    29    25    23   ar
    30    34    35    1
    31    23    24   ar
    32    38    39    2
    33    38    37    1
    34    78    75    1
    35     6     7    1
    36    36    37    1
    37     8     7   ar
    38     7     9   ar
    39    37    40    1
    40    82    83    2
    41    82    81    1
    42    75    76    1
    43    75    74    1
    44   129   130    1
    45   134   135    1
    46   134   133    1
    47    77    76    2
    48    76    80   am
    49   130   133    1
    50   130   131    1
    51   136   135   ar
    52    80    81    1
    53   132   131    2
    54    40    41    1
    55   135   137   ar
    56    81    84    1
    57    74    72   am
    58    84    85    1
    59    85    87    1
    60    85    86    1
    61    73    72    2
    62    72    71    1
    63    70    71    1
    64   128   126    1
    65    60    61    2
    66    60    59    1
    67   120   119    1
    68    97    95   ar
    69    97    98   ar
    70   119   118    1
    71    95    93   ar
    72    99    98    1
    73   123   122    1
    74   123   124    2
    75   127   126    1
    76   125   122    1
    77   125   126    1
    78   122   121    1
    79    98    96   ar
    80    59    58    1
    81    59    62    1
    82    93    92    1
    83    93    94   ar
    84    92    89    1
    85   115   114    2
    86    96    94   ar
    87   118   117    1
    88   121   114   am
    89   117   116    1
    90   114   113    1
    91    62    63    1
    92    64    66   ar
    93    64    63   ar
    94    66    68   ar
    95    63    65   ar
    96    68    69    1
    97    68    67   ar
    98    65    67   ar
    99    89    88    1
   100    89    90    1
   101   107   109   ar
   102   107   105   ar
   103   109   110   ar
   104   116   113    1
   105   113   112    1
   106    90    91    2
   107   105   104    1
   108   105   106   ar
   109   104   101    1
   110   110   111    1
   111   110   108   ar
   112    49    47   am
   113   106   108   ar
   114   100   101    1
   115   101   102    1
   116    46    47    1
   117    46    43    1
   118    47    48    2
   119    42    43    1
   120   103   102    2
   121    43    44    1
   122    44    45    2
   123    56    55    2
   124    55    57   am
   125    55    54    1
   126    54    51    1
   127    50    51    1
   128    51    52    1
   129    52    53    2
