@<TRIPOS>MOLECULE
tmp/2ox0A00.pdb
 207 200 0 0 0
SMALL
GASTEIGER

@<TRIPOS>ATOM
      1  N        -13.1920  -16.4290  -22.3170 N.3    65  ILE65      -0.1245
      2  CA       -13.0050  -17.0550  -21.0080 C.3    65  ILE65       0.1561
      3  C        -12.3090  -18.4140  -21.1260 C.2    65  ILE65       0.2260
      4  O        -12.7360  -19.2710  -21.9020 O.2    65  ILE65      -0.2867
      5  CB       -14.3500  -17.1830  -20.2360 C.3    65  ILE65       0.0252
      6  CG1      -15.4490  -17.7620  -21.1220 C.3    65  ILE65       0.0019
      7  CG2      -14.7910  -15.8190  -19.6820 C.3    65  ILE65       0.0019
      8  CD1      -16.6360  -18.3780  -20.3050 C.3    65  ILE65       0.0001
      9  N        -11.7500  -21.9100  -19.4780 N.3    67  GLN67      -0.1245
     10  CA       -12.6120  -22.7260  -18.5990 C.3    67  GLN67       0.1566
     11  C        -11.8090  -23.7650  -17.8100 C.2    67  GLN67       0.2260
     12  O        -11.5140  -24.8610  -18.2990 O.2    67  GLN67      -0.2867
     13  CB       -13.6960  -23.3890  -19.4430 C.3    67  GLN67       0.0367
     14  CG       -14.6270  -22.3620  -20.0900 C.3    67  GLN67       0.0905
     15  CD       -15.8850  -22.9670  -20.6630 C.2    67  GLN67       0.2608
     16  OE1      -15.8130  -23.9090  -21.4500 O.2    67  GLN67      -0.2717
     17  NE2      -17.0510  -22.4090  -20.3010 N.am   67  GLN67      -0.0878
     18  N        -16.6530  -25.4530  -12.5230 N.3    78  GLN78      -0.1231
     19  CA       -15.9980  -24.7520  -13.6270 C.3    78  GLN78       0.1698
     20  C        -15.7030  -23.2890  -13.2750 C.2    78  GLN78       0.2592
     21  O        -16.6080  -22.5360  -12.8910 O.2    78  GLN78      -0.2718
     22  CB       -16.8760  -24.8220  -14.8760 C.3    78  GLN78       0.0381
     23  CG       -16.3570  -24.0100  -16.0580 C.3    78  GLN78       0.0905
     24  CD       -17.1520  -24.3240  -17.3130 C.2    78  GLN78       0.2608
     25  OE1      -16.7410  -25.1550  -18.1260 O.2    78  GLN78      -0.2717
     26  NE2      -18.3250  -23.6990  -17.4450 N.am   78  GLN78      -0.0878
     27  N        -14.4320  -22.9030  -13.3890 N.am   79  TYR79      -0.1962
     28  CA       -13.9920  -21.5200  -13.1600 C.3    79  TYR79       0.1771
     29  C        -13.6870  -20.8280  -14.4900 C.2    79  TYR79       0.2620
     30  O        -12.8280  -21.2760  -15.2510 O.2    79  TYR79      -0.2715
     31  CB       -12.7670  -21.4980  -12.2530 C.3    79  TYR79       0.0574
     32  CG       -13.0570  -22.0090  -10.8570 C.ar   79  TYR79      -0.0198
     33  CD1      -13.1210  -23.3810  -10.5940 C.ar   79  TYR79      -0.0009
     34  CD2      -13.2660  -21.1300   -9.8010 C.ar   79  TYR79      -0.0009
     35  CE1      -13.3930  -23.8620   -9.3200 C.ar   79  TYR79       0.0417
     36  CE2      -13.5470  -21.6100   -8.5130 C.ar   79  TYR79       0.0417
     37  CZ       -13.6110  -22.9770   -8.2940 C.ar   79  TYR79       0.1957
     38  OH       -13.8740  -23.4580   -7.0460 O.3    79  TYR79      -0.2866
     39  N        -14.4170  -19.7490  -14.7790 N.am   80  ASN80      -0.1958
     40  CA       -14.3260  -19.0640  -16.0720 C.3    80  ASN80       0.1819
     41  C        -13.4250  -17.8480  -15.9270 C.2    80  ASN80       0.2621
     42  O        -13.8230  -16.8500  -15.3120 O.2    80  ASN80      -0.2715
     43  CB       -15.7000  -18.6180  -16.5710 C.3    80  ASN80       0.1195
     44  CG       -16.6260  -19.7740  -16.8590 C.2    80  ASN80       0.2630
     45  OD1      -16.3920  -20.5690  -17.7610 O.2    80  ASN80      -0.2716
     46  ND2      -17.6870  -19.8790  -16.0780 N.am   80  ASN80      -0.0877
     47  N        -12.2190  -17.9470  -16.4900 N.am   81  ILE81      -0.1963
     48  CA       -11.1870  -16.9060  -16.3680 C.3    81  ILE81       0.1727
     49  C        -11.1070  -16.0130  -17.6210 C.2    81  ILE81       0.2616
     50  O        -10.7560  -16.4710  -18.7090 O.2    81  ILE81      -0.2715
     51  CB        -9.7900  -17.5140  -16.0940 C.3    81  ILE81       0.0290
     52  CG1       -9.8590  -18.5910  -14.9890 C.3    81  ILE81       0.0022
     53  CG2       -8.7820  -16.4090  -15.7220 C.3    81  ILE81       0.0023
     54  CD1      -10.6800  -18.1880  -13.7710 C.3    81  ILE81       0.0001
     55  N        -11.4150  -14.7310  -17.4430 N.am   82  GLN82      -0.1977
     56  CA       -11.3720  -13.7570  -18.5380 C.3    82  GLN82       0.1601
     57  C         -9.9570  -13.5470  -19.0600 C.2    82  GLN82       0.2287
     58  O         -9.0480  -13.1930  -18.2990 O.2    82  GLN82      -0.2864
     59  CB       -11.9490  -12.4140  -18.0860 C.3    82  GLN82       0.0394
     60  CG       -12.1160  -11.4080  -19.2110 C.3    82  GLN82       0.0908
     61  CD       -12.9550  -10.2000  -18.8020 C.2    82  GLN82       0.2608
     62  OE1      -14.0560  -10.3420  -18.2590 O.2    82  GLN82      -0.2717
     63  NE2      -12.4410   -9.0060  -19.0810 N.am   82  GLN82      -0.0878
     64  N        -13.5910  -20.2770  -24.3010 N.3   126  TYR126     -0.1241
     65  CA       -14.9280  -20.1260  -24.8520 C.3   126  TYR126      0.1605
     66  C        -15.1160  -18.6520  -25.1720 C.2   126  TYR126      0.2264
     67  O        -14.9890  -17.8010  -24.2870 O.2   126  TYR126     -0.2867
     68  CB       -15.9770  -20.6180  -23.8390 C.3   126  TYR126      0.0534
     69  CG       -17.3660  -20.9240  -24.3850 C.ar  126  TYR126     -0.0201
     70  CD1      -17.6230  -20.9760  -25.7530 C.ar  126  TYR126     -0.0009
     71  CD2      -18.4110  -21.2270  -23.5180 C.ar  126  TYR126     -0.0009
     72  CE1      -18.8890  -21.2700  -26.2400 C.ar  126  TYR126      0.0417
     73  CE2      -19.6890  -21.5300  -23.9950 C.ar  126  TYR126      0.0417
     74  CZ       -19.9140  -21.5740  -25.3570 C.ar  126  TYR126      0.1957
     75  OH       -21.1600  -21.8840  -25.8640 O.3   126  TYR126     -0.2866
     76  N        -17.4990  -16.6150  -25.2960 N.3   128  ALA128     -0.1231
     77  CA       -18.8860  -16.4930  -24.8410 C.3   128  ALA128      0.1694
     78  C        -19.3650  -15.0400  -24.6450 C.2   128  ALA128      0.2592
     79  O        -18.5680  -14.1020  -24.5470 O.2   128  ALA128     -0.2718
     80  CB       -19.0720  -17.3080  -23.5270 C.3   128  ALA128      0.0304
     81  N        -20.6870  -14.8650  -24.6330 N.am  129  ASP129     -0.1974
     82  CA       -21.3350  -13.6200  -24.1950 C.3   129  ASP129      0.1709
     83  C        -20.9460  -12.3790  -25.0040 C.2   129  ASP129      0.2293
     84  O        -20.7980  -11.2960  -24.4480 O.2   129  ASP129     -0.2864
     85  CB       -21.0540  -13.3630  -22.7020 C.3   129  ASP129      0.1436
     86  CG       -21.4210  -14.5440  -21.8220 C.2   129  ASP129      0.3671
     87  OD1      -22.2750  -15.3450  -22.2230 O.co2 129  ASP129     -0.2456
     88  OD2      -20.8630  -14.6660  -20.7140 O.co2 129  ASP129     -0.2456
     89  N        -28.3210   -6.8760  -21.2410 N.3   163  GLU163     -0.1231
     90  CA       -27.5740   -7.5550  -22.3110 C.3   163  GLU163      0.1699
     91  C        -27.6490   -9.0910  -22.2030 C.2   163  GLU163      0.2593
     92  O        -27.4500   -9.6710  -21.1350 O.2   163  GLU163     -0.2718
     93  CB       -26.1200   -7.0590  -22.3760 C.3   163  GLU163      0.0402
     94  CG       -26.0180   -5.6310  -22.9160 C.3   163  GLU163      0.1161
     95  CD       -24.5950   -5.0540  -22.9480 C.2   163  GLU163      0.3649
     96  OE1      -23.6640   -5.6850  -22.4090 O.co2 163  GLU163     -0.2457
     97  OE2      -24.4160   -3.9590  -23.5280 O.co2 163  GLU163     -0.2457
     98  N        -27.9830   -9.7220  -23.3280 N.am  164  GLY164     -0.1942
     99  CA       -28.1540  -11.1590  -23.4300 C.3   164  GLY164      0.2014
    100  C        -29.5530  -11.6600  -23.0940 C.2   164  GLY164      0.2638
    101  O        -29.9200  -12.7780  -23.4560 O.2   164  GLY164     -0.2714
    102  N        -30.3260  -10.8420  -22.3780 N.am  165  VAL165     -0.1977
    103  CA       -31.6330  -11.2290  -21.9000 C.3   165  VAL165      0.1596
    104  C        -32.6940  -10.6560  -22.8490 C.2   165  VAL165      0.2287
    105  O        -33.4890  -11.4110  -23.4030 O.2   165  VAL165     -0.2864
    106  CB       -31.8280  -10.7960  -20.4340 C.3   165  VAL165      0.0276
    107  CG1      -33.2610  -11.0700  -19.9590 C.3   165  VAL165      0.0022
    108  CG2      -30.8170  -11.5260  -19.5340 C.3   165  VAL165      0.0022
    109  N        -26.7510  -12.3780  -27.8470 N.3   169  TYR169     -0.1241
    110  CA       -25.3660  -12.7790  -27.5950 C.3   169  TYR169      0.1605
    111  C        -24.8800  -13.7690  -28.6360 C.2   169  TYR169      0.2264
    112  O        -25.6170  -14.6660  -29.0480 O.2   169  TYR169     -0.2867
    113  CB       -25.2360  -13.4930  -26.2520 C.3   169  TYR169      0.0534
    114  CG       -24.9810  -12.6500  -25.0140 C.ar  169  TYR169     -0.0201
    115  CD1      -24.9020  -11.2660  -25.0570 C.ar  169  TYR169     -0.0009
    116  CD2      -24.8590  -13.2670  -23.7850 C.ar  169  TYR169     -0.0009
    117  CE1      -24.6810  -10.5240  -23.9050 C.ar  169  TYR169      0.0417
    118  CE2      -24.6410  -12.5370  -22.6210 C.ar  169  TYR169      0.0417
    119  CZ       -24.5450  -11.1680  -22.6930 C.ar  169  TYR169      0.1957
    120  OH       -24.3350  -10.4420  -21.5590 O.3   169  TYR169     -0.2866
    121  N        -21.8390  -16.7680  -29.2770 N.3   171  TYR171     -0.1241
    122  CA       -20.9640  -17.7150  -28.5900 C.3   171  TYR171      0.1605
    123  C        -20.0700  -18.4450  -29.5930 C.2   171  TYR171      0.2264
    124  O        -20.5460  -19.2440  -30.4000 O.2   171  TYR171     -0.2867
    125  CB       -21.7760  -18.7590  -27.8210 C.3   171  TYR171      0.0534
    126  CG       -22.6760  -18.1950  -26.7520 C.ar  171  TYR171     -0.0201
    127  CD1      -23.9500  -17.7440  -27.0620 C.ar  171  TYR171     -0.0009
    128  CD2      -22.2630  -18.1320  -25.4250 C.ar  171  TYR171     -0.0009
    129  CE1      -24.7810  -17.2350  -26.0860 C.ar  171  TYR171      0.0417
    130  CE2      -23.0930  -17.6410  -24.4420 C.ar  171  TYR171      0.0417
    131  CZ       -24.3530  -17.1870  -24.7810 C.ar  171  TYR171      0.1957
    132  OH       -25.1720  -16.6820  -23.8080 O.3   171  TYR171     -0.2866
    133  N        -17.9200  -25.6290  -22.3630 N.3   178  SER178     -0.1202
    134  CA       -19.1050  -26.1330  -21.6550 C.3   178  SER178      0.2020
    135  C        -19.9920  -25.0360  -21.1090 C.2   178  SER178      0.2619
    136  O        -19.5130  -23.9590  -20.7570 O.2   178  SER178     -0.2717
    137  CB       -18.6900  -26.9890  -20.4380 C.3   178  SER178      0.2103
    138  OG       -17.7180  -27.9500  -20.7800 O.3   178  SER178     -0.2182
    139  N        -21.2860  -25.3600  -20.9990 N.am  179  PHE179     -0.1961
    140  CA       -22.2210  -24.5750  -20.2090 C.3   179  PHE179      0.1771
    141  C        -22.7480  -25.4080  -19.0320 C.2   179  PHE179      0.2619
    142  O        -23.2100  -26.5470  -19.1890 O.2   179  PHE179     -0.2715
    143  CB       -23.3550  -23.9150  -21.0380 C.3   179  PHE179      0.0574
    144  CG       -24.1180  -24.8480  -21.9710 C.ar  179  PHE179     -0.0200
    145  CD1      -25.4340  -25.2120  -21.6830 C.ar  179  PHE179     -0.0042
    146  CD2      -23.5600  -25.2730  -23.1790 C.ar  179  PHE179     -0.0042
    147  CE1      -26.1620  -26.0370  -22.5450 C.ar  179  PHE179     -0.0003
    148  CE2      -24.2830  -26.0980  -24.0560 C.ar  179  PHE179     -0.0003
    149  CZ       -25.5930  -26.4830  -23.7360 C.ar  179  PHE179     -0.0000
    150  N        -22.5990  -24.8370  -17.8420 N.am  180  ALA180     -0.1977
    151  CA       -22.9980  -25.4940  -16.6040 C.3   180  ALA180      0.1597
    152  C        -24.5180  -25.6420  -16.4780 C.2   180  ALA180      0.2287
    153  O        -25.2700  -24.9950  -17.2000 O.2   180  ALA180     -0.2864
    154  CB       -22.4310  -24.7240  -15.3940 C.3   180  ALA180      0.0319
    155  N        -32.0850  -16.7340  -16.4160 N.3   185  ASP185     -0.1239
    156  CA       -32.3790  -15.6360  -15.5120 C.3   185  ASP185      0.1674
    157  C        -33.8920  -15.4320  -15.4470 C.2   185  ASP185      0.2266
    158  O        -34.5640  -15.5080  -16.4740 O.2   185  ASP185     -0.2867
    159  CB       -31.7220  -14.3560  -15.9870 C.3   185  ASP185      0.1410
    160  CG       -30.2140  -14.3640  -15.7880 C.2   185  ASP185      0.3668
    161  OD1      -29.7920  -14.4970  -14.6250 O.co2 185  ASP185     -0.2456
    162  OD2      -29.4700  -14.2160  -16.7910 O.co2 185  ASP185     -0.2456
    163  N        -24.9490  -19.4110  -10.3270 N.3   234  HIS234     -0.1226
    164  CA       -23.5420  -19.0760  -10.6280 C.3   234  HIS234      0.1752
    165  C        -23.0000  -19.7230  -11.9030 C.2   234  HIS234      0.2596
    166  O        -21.9410  -19.3110  -12.4010 O.2   234  HIS234     -0.2718
    167  CB       -22.6250  -19.4360   -9.4740 C.3   234  HIS234      0.0759
    168  CG       -23.0740  -18.8930   -8.1600 C.ar  234  HIS234      0.0818
    169  ND1      -22.5600  -19.3350   -6.9630 N.ar  234  HIS234     -0.2268
    170  CD2      -24.0260  -17.9800   -7.8490 C.ar  234  HIS234      0.1154
    171  CE1      -23.1540  -18.6950   -5.9690 C.ar  234  HIS234      0.1986
    172  NE2      -24.0490  -17.8720   -6.4810 N.ar  234  HIS234     -0.2212
    173  N        -23.7230  -20.7100  -12.4320 N.am  235  LYS235     -0.1966
    174  CA       -23.3440  -21.4340  -13.6620 C.3   235  LYS235      0.1728
    175  C        -21.8990  -21.9790  -13.6210 C.2   235  LYS235      0.2616
    176  O        -21.1170  -21.8260  -14.5650 O.2   235  LYS235     -0.2715
    177  CB       -23.5820  -20.5560  -14.8880 C.3   235  LYS235      0.0311
    178  CG       -25.0380  -20.1710  -15.1000 C.3   235  LYS235      0.0038
    179  CD       -25.1560  -19.0850  -16.1590 C.3   235  LYS235      0.0206
    180  CE       -26.5880  -18.7000  -16.4100 C.3   235  LYS235      0.1093
    181  NZ       -26.7400  -17.7290  -17.5260 N.3   235  LYS235     -0.1314
    182  N        -21.5630  -22.5950  -12.4900 N.am  236  MET236     -0.1977
    183  CA       -20.2440  -23.1980  -12.2550 C.3   236  MET236      0.1605
    184  C        -20.3190  -24.7140  -12.0040 C.2   236  MET236      0.2287
    185  O        -19.2880  -25.3770  -11.8450 O.2   236  MET236     -0.2864
    186  CB       -19.5910  -22.5010  -11.0580 C.3   236  MET236      0.0413
    187  CG       -19.1860  -21.0780  -11.3700 C.3   236  MET236      0.0598
    188  SD       -18.5690  -20.1700   -9.9600 S.3   236  MET236     -0.1393
    189  CE       -17.0550  -21.0640   -9.5440 C.3   236  MET236      0.0692
    190  N        -24.2270  -12.3790   -5.1180 N.3   303  ARG303     -0.1245
    191  CA       -23.3720  -11.6500   -6.0520 C.3   303  ARG303      0.1563
    192  C        -24.0850  -10.3590   -6.4270 C.2   303  ARG303      0.2260
    193  O        -25.3200  -10.3070   -6.4380 O.2   303  ARG303     -0.2867
    194  CB       -23.0580  -12.5070   -7.2890 C.3   303  ARG303      0.0307
    195  CG       -22.5360  -13.8980   -6.9160 C.3   303  ARG303      0.0489
    196  CD       -21.7000  -14.5990   -7.9920 C.3   303  ARG303      0.2205
    197  NE       -20.9810  -15.7370   -7.4000 N.pl3 303  ARG303     -0.0865
    198  CZ       -19.9960  -16.4290   -7.9810 C.cat 303  ARG303      0.5346
    199  NH1      -19.5650  -16.1290   -9.2060 N.pl3 303  ARG303      0.1354
    200  NH2      -19.4300  -17.4360   -7.3180 N.pl3 303  ARG303      0.1354
    201  N        -29.2000  -10.5500  -12.5660 N.3   307  VAL307     -0.1245
    202  CA       -30.3870  -10.1670  -13.3350 C.3   307  VAL307      0.1561
    203  C        -31.6790  -10.3210  -12.5270 C.2   307  VAL307      0.2260
    204  O        -32.0630  -11.4300  -12.1390 O.2   307  VAL307     -0.2867
    205  CB       -30.4900  -10.9470  -14.6750 C.3   307  VAL307      0.0252
    206  CG1      -31.7870  -10.5870  -15.3970 C.3   307  VAL307      0.0019
    207  CG2      -29.2750  -10.6410  -15.5570 C.3   307  VAL307      0.0019
@<TRIPOS>BOND
     1   124   123    2
     2   123   122    1
     3   121   122    1
     4   112   111    2
     5   111   110    1
     6   122   125    1
     7   109   110    1
     8   125   126    1
     9   110   113    1
    10   127   126   ar
    11   127   129   ar
    12   126   128   ar
    13   113   114    1
    14    72    70   ar
    15    72    74   ar
    16   129   131   ar
    17    75    74    1
    18    70    69   ar
    19   128   130   ar
    20    74    73   ar
    21    76    77    1
    22    66    65    1
    23    66    67    2
    24   115   114   ar
    25   115   117   ar
    26   114   116   ar
    27    83    84    2
    28    83    82    1
    29    65    64    1
    30    65    68    1
    31    77    78    1
    32    77    80    1
    33   131   130   ar
    34   131   132    1
    35    78    81   am
    36    78    79    2
    37    81    82    1
    38    69    68    1
    39    69    71   ar
    40    82    85    1
    41   148   149   ar
    42   148   146   ar
    43    73    71   ar
    44   117   119   ar
    45   116   118   ar
    46   149   147   ar
    47    97    95   ar
    48   101   100    2
    49    99    98    1
    50    99   100    1
    51   105   104    2
    52    98    91   am
    53   146   144   ar
    54   100   102   am
    55    95    94    1
    56    95    96   ar
    57    94    93    1
    58   104   103    1
    59    85    86    1
    60   119   118   ar
    61   119   120    1
    62   147   145   ar
    63   102   103    1
    64    93    90    1
    65   133   134    1
    66     1     2    1
    67    90    91    1
    68    90    89    1
    69    87    86   ar
    70    91    92    2
    71   144   145   ar
    72   144   143    1
    73     4     3    2
    74   103   106    1
    75    86    88   ar
    76   134   135    1
    77   134   137    1
    78    16    15    2
    79     3     2    1
    80     6     8    1
    81     6     5    1
    82   135   139   am
    83   135   136    2
    84   143   140    1
    85     2     5    1
    86   139   140    1
    87   138   137    1
    88    15    17   am
    89    15    14    1
    90   106   107    1
    91   106   108    1
    92     5     7    1
    93   140   141    1
    94    14    13    1
    95     9    10    1
    96    13    10    1
    97    60    61    1
    98    60    59    1
    99   142   141    2
   100    63    61   am
   101    57    56    1
   102    57    58    2
   103   141   150   am
   104    61    62    2
   105    50    49    2
   106    10    11    1
   107    56    59    1
   108    56    55    1
   109    12    11    2
   110    25    24    2
   111   150   151    1
   112    45    44    2
   113    49    55   am
   114    49    48    1
   115   181   180    1
   116    26    24   am
   117    24    23    1
   118   153   152    2
   119    44    43    1
   120    44    46   am
   121   162   160   ar
   122   151   152    1
   123   151   154    1
   124    43    40    1
   125    47    48    1
   126    47    41   am
   127   158   157    2
   128   155   156    1
   129   180   179    1
   130    48    51    1
   131   179   178    1
   132    51    53    1
   133    51    52    1
   134    40    41    1
   135    40    39    1
   136    23    22    1
   137   159   160    1
   138   159   156    1
   139    41    42    2
   140   160   161   ar
   141   207   205    1
   142   156   157    1
   143   206   205    1
   144    30    29    2
   145   178   177    1
   146    52    54    1
   147   177   174    1
   148    22    19    1
   149    39    29   am
   150   205   202    1
   151   176   175    2
   152    29    28    1
   153   174   175    1
   154   174   173    1
   155    19    20    1
   156    19    18    1
   157   175   182   am
   158    27    20   am
   159    27    28    1
   160   202   201    1
   161   202   203    1
   162    20    21    2
   163    28    31    1
   164   203   204    2
   165   182   183    1
   166   173   165   am
   167   166   165    2
   168   183   184    1
   169   183   186    1
   170    31    32    1
   171   184   185    2
   172   165   164    1
   173   187   186    1
   174   187   188    1
   175    32    33   ar
   176    32    34   ar
   177   164   163    1
   178   164   167    1
   179    33    35   ar
   180   188   189    1
   181    34    36   ar
   182   167   168    1
   183    35    37   ar
   184   199   198    1
   185    36    37   ar
   186    37    38    1
   187   168   170   ar
   188   168   169   ar
   189   196   197    1
   190   196   195    1
   191   198   197    2
   192   198   200    1
   193   170   172   ar
   194   194   195    1
   195   194   191    1
   196   169   171   ar
   197   172   171   ar
   198   193   192    2
   199   192   191    1
   200   191   190    1
