@<TRIPOS>MOLECULE
tmp/2ox3A01.pdb
 81 76 0 0 0
SMALL
GASTEIGER

@<TRIPOS>ATOM
      1  N        -10.0190   15.8270    3.0490 N.3     2  THR2       -0.1203
      2  CA        -8.6010   15.7370    3.3880 C.3     2  THR2        0.1994
      3  C         -8.1720   16.8250    4.3620 C.2     2  THR2        0.2618
      4  O         -8.8880   17.8040    4.5880 O.2     2  THR2       -0.2717
      5  CB        -7.7190   15.9120    2.1720 C.3     2  THR2        0.1784
      6  OG1       -7.7580   17.2910    1.7820 O.3     2  THR2       -0.2211
      7  CG2       -8.1910   15.0230    1.0300 C.3     2  THR2        0.0376
      8  N         -6.9820   16.6520    4.9140 N.am    3  LEU3       -0.1965
      9  CA        -6.4160   17.6050    5.8540 C.3     3  LEU3        0.1728
     10  C         -6.2500   18.9500    5.1620 C.2     3  LEU3        0.2617
     11  O         -6.6620   19.9820    5.6900 O.2     3  LEU3       -0.2715
     12  CB        -5.0640   17.0950    6.3600 C.3     3  LEU3        0.0311
     13  CG        -4.1820   18.0560    7.1660 C.3     3  LEU3        0.0022
     14  CD1       -4.8990   18.5030    8.4320 C.3     3  LEU3        0.0001
     15  CD2       -2.8710   17.3580    7.5010 C.3     3  LEU3        0.0001
     16  N         -5.6630   18.9320    3.9670 N.am    4  GLY4       -0.1940
     17  CA        -5.4570   20.1640    3.2230 C.3     4  GLY4        0.2014
     18  C         -6.7500   20.8740    2.8590 C.2     4  GLY4        0.2638
     19  O         -6.7930   22.1010    2.7600 O.2     4  GLY4       -0.2714
     20  N         -7.8140   20.1100    2.6470 N.am    5  GLU5       -0.1977
     21  CA        -9.0870   20.7210    2.2950 C.3     5  GLU5        0.1602
     22  C         -9.7540   21.2940    3.5320 C.2     5  GLU5        0.2287
     23  O        -10.5410   22.2270    3.4360 O.2     5  GLU5       -0.2864
     24  CB       -10.0080   19.7020    1.6330 C.3     5  GLU5        0.0415
     25  CG        -9.5360   19.2540    0.2770 C.3     5  GLU5        0.1163
     26  CD       -10.4090   18.1640   -0.3010 C.2     5  GLU5        0.3649
     27  OE1      -11.1560   17.5250    0.4740 O.co2   5  GLU5       -0.2457
     28  OE2      -10.3400   17.9420   -1.5310 O.co2   5  GLU5       -0.2457
     29  N         -0.9510   25.4940    5.9260 N.3    22  THR22      -0.1218
     30  CA        -0.8760   24.3660    4.9990 C.3    22  THR22       0.1862
     31  C          0.5770   23.9440    4.7760 C.2    22  THR22       0.2287
     32  O          0.8870   22.7510    4.7500 O.2    22  THR22      -0.2866
     33  CB        -1.5040   24.7120    3.6310 C.3    22  THR22       0.1770
     34  OG1       -2.9050   24.9600    3.7950 O.3    22  THR22      -0.2211
     35  CG2       -1.3170   23.5580    2.6520 C.3    22  THR22       0.0375
     36  N          2.0070   20.4710    6.0350 N.3    26  SER26      -0.1217
     37  CA         2.4690   19.6660    4.9100 C.3    26  SER26       0.1889
     38  C          3.8220   19.0690    5.2660 C.2    26  SER26       0.2288
     39  O          4.1040   17.9060    4.9640 O.2    26  SER26      -0.2866
     40  CB         2.5930   20.5110    3.6440 C.3    26  SER26       0.2089
     41  OG         1.3260   20.7190    3.0400 O.3    26  SER26      -0.2183
     42  N          3.1520   16.2070    7.9990 N.3    29  LYS29      -0.1245
     43  CA         2.6160   14.9660    7.4610 C.3    29  LYS29       0.1561
     44  C          3.6010   14.2350    6.5510 C.2    29  LYS29       0.2260
     45  O          3.5940   13.0060    6.4960 O.2    29  LYS29      -0.2867
     46  CB         1.2900   15.2080    6.7270 C.3    29  LYS29       0.0271
     47  CG         1.4160   15.7820    5.3390 C.3    29  LYS29       0.0035
     48  CD         0.0630   15.7910    4.6340 C.3    29  LYS29       0.0206
     49  CE         0.1720   16.4450    3.2610 C.3    29  LYS29       0.1093
     50  NZ        -1.1040   16.4170    2.5050 N.3    29  LYS29      -0.1314
     51  N          4.6910   10.5750    7.1160 N.3    33  LYS33      -0.1245
     52  CA         4.5860    9.5260    6.1010 C.3    33  LYS33       0.1561
     53  C          5.8950    8.7570    5.9830 C.2    33  LYS33       0.2260
     54  O          5.9040    7.5370    5.8350 O.2    33  LYS33      -0.2867
     55  CB         4.2450   10.1300    4.7350 C.3    33  LYS33       0.0271
     56  CG         2.8020   10.5940    4.5940 C.3    33  LYS33       0.0035
     57  CD         2.4970   11.0670    3.1690 C.3    33  LYS33       0.0206
     58  CE         1.0580   11.5570    3.0660 C.3    33  LYS33       0.1093
     59  NZ         0.6340   11.8730    1.6740 N.3    33  LYS33      -0.1314
     60  N         -3.0430    7.3340    0.1900 N.3   165  GLY165     -0.1210
     61  CA        -1.7910    8.0110    0.4500 C.3   165  GLY165      0.1956
     62  C         -2.1280    9.4340    0.8570 C.2   165  GLY165      0.2612
     63  O         -1.4480   10.3740    0.4620 O.2   165  GLY165     -0.2717
     64  N         -3.1940    9.5880    1.6410 N.am  166  VAL166     -0.1965
     65  CA        -3.6300   10.9050    2.0960 C.3   166  VAL166      0.1727
     66  C         -4.2690   10.8540    3.4810 C.2   166  VAL166      0.2616
     67  O         -4.7850    9.8190    3.8980 O.2   166  VAL166     -0.2715
     68  CB        -4.6480   11.5260    1.1040 C.3   166  VAL166      0.0290
     69  CG1       -4.0800   11.5100   -0.3000 C.3   166  VAL166      0.0023
     70  CG2       -5.9510   10.7670    1.1410 C.3   166  VAL166      0.0023
     71  N         -4.2170   11.9670    4.2060 N.am  167  PHE167     -0.1974
     72  CA        -4.8180   12.0200    5.5280 C.3   167  PHE167      0.1639
     73  C         -6.2430   12.5480    5.3970 C.2   167  PHE167      0.2290
     74  O         -6.4790   13.5700    4.7510 O.2   167  PHE167     -0.2864
     75  CB        -4.0230   12.9260    6.4680 C.3   167  PHE167      0.0560
     76  CG        -2.8300   12.2640    7.0930 C.ar  167  PHE167     -0.0200
     77  CD1       -1.5890   12.2980    6.4680 C.ar  167  PHE167     -0.0042
     78  CD2       -2.9440   11.6240    8.3250 C.ar  167  PHE167     -0.0042
     79  CE1       -0.4750   11.7060    7.0640 C.ar  167  PHE167     -0.0003
     80  CE2       -1.8420   11.0300    8.9320 C.ar  167  PHE167     -0.0003
     81  CZ        -0.6030   11.0710    8.3010 C.ar  167  PHE167     -0.0000
@<TRIPOS>BOND
     1    28    26   ar
     2    26    25    1
     3    26    27   ar
     4    69    68    1
     5    60    61    1
     6    25    24    1
     7    61    62    1
     8    63    62    2
     9    62    64   am
    10     7     5    1
    11    68    70    1
    12    68    65    1
    13    24    21    1
    14    64    65    1
    15    59    58    1
    16     6     5    1
    17    65    66    1
    18     5     2    1
    19    21    20    1
    20    21    22    1
    21    50    49    1
    22    20    18   am
    23    35    33    1
    24    19    18    2
    25    18    17    1
    26    41    40    1
    27     1     2    1
    28    58    57    1
    29    57    56    1
    30    17    16    1
    31    49    48    1
    32     2     3    1
    33    23    22    2
    34    66    67    2
    35    66    71   am
    36    33    34    1
    37    33    30    1
    38    40    37    1
    39    16    10   am
    40    71    72    1
    41     3     4    2
    42     3     8   am
    43    56    55    1
    44    48    47    1
    45    55    52    1
    46    32    31    2
    47    74    73    2
    48    31    30    1
    49    37    38    1
    50    37    36    1
    51     8     9    1
    52    39    38    2
    53    30    29    1
    54    10    11    2
    55    10     9    1
    56    47    46    1
    57    73    72    1
    58    72    75    1
    59    54    53    2
    60     9    12    1
    61    53    52    1
    62    52    51    1
    63    12    13    1
    64    77    79   ar
    65    77    76   ar
    66    75    76    1
    67    45    44    2
    68    44    43    1
    69    46    43    1
    70    79    81   ar
    71    76    78   ar
    72    13    15    1
    73    13    14    1
    74    43    42    1
    75    81    80   ar
    76    78    80   ar
