@<TRIPOS>MOLECULE
tmp/2ox9C01.pdb
 89 85 0 0 0
SMALL
GASTEIGER

@<TRIPOS>ATOM
      1  N         36.8380   70.8420   18.9660 N.3    85  LYS85      -0.1231
      2  CA        36.8530   71.4870   17.6620 C.3    85  LYS85       0.1693
      3  C         37.6630   72.7580   17.8960 C.2    85  LYS85       0.2591
      4  O         37.6560   73.3060   19.0010 O.2    85  LYS85      -0.2718
      5  CB        35.4380   71.8540   17.2150 C.3    85  LYS85       0.0285
      6  CG        35.4090   72.7280   15.9760 C.3    85  LYS85       0.0035
      7  CD        34.0650   73.4110   15.8090 C.3    85  LYS85       0.0206
      8  CE        34.1310   74.4870   14.7350 C.3    85  LYS85       0.1093
      9  NZ        32.8740   75.2800   14.6790 N.3    85  LYS85      -0.1314
     10  N         38.3710   73.2190   16.8710 N.am   86  ALA86      -0.1980
     11  CA        39.1740   74.4250   17.0080 C.3    86  ALA86       0.1597
     12  C         38.3240   75.5460   17.5950 C.2    86  ALA86       0.2287
     13  O         37.1950   75.7650   17.1670 O.2    86  ALA86      -0.2864
     14  CB        39.7300   74.8410   15.6530 C.3    86  ALA86       0.0319
     15  N         37.2240   75.6570   20.7060 N.3    88  GLN88      -0.1245
     16  CA        36.4920   75.1770   21.8770 C.3    88  GLN88       0.1566
     17  C         37.4810   74.6290   22.8990 C.2    88  GLN88       0.2260
     18  O         38.5690   74.1850   22.5330 O.2    88  GLN88      -0.2867
     19  CB        35.5080   74.0790   21.4650 C.3    88  GLN88       0.0367
     20  CG        34.4770   74.5250   20.4380 C.3    88  GLN88       0.0905
     21  CD        33.6070   75.6570   20.9490 C.2    88  GLN88       0.2608
     22  OE1       32.8180   75.4730   21.8760 O.2    88  GLN88      -0.2717
     23  NE2       33.7540   76.8380   20.3530 N.am   88  GLN88      -0.0878
     24  N         34.5570   77.0820   24.4010 N.3    90  ASP90      -0.1239
     25  CA        34.2540   78.5080   24.4010 C.3    90  ASP90       0.1674
     26  C         33.4470   78.9910   25.6070 C.2    90  ASP90       0.2266
     27  O         33.3230   80.1980   25.8280 O.2    90  ASP90      -0.2867
     28  CB        33.5220   78.8770   23.1070 C.3    90  ASP90       0.1410
     29  CG        32.1970   78.1470   22.9460 C.2    90  ASP90       0.3668
     30  OD1       31.9240   77.1860   23.7000 O.co2  90  ASP90      -0.2456
     31  OD2       31.4260   78.5360   22.0440 O.co2  90  ASP90      -0.2456
     32  N         30.3630   79.2330   26.1250 N.3    92  TRP92      -0.1241
     33  CA        29.3620   80.1440   25.5720 C.3    92  TRP92       0.1605
     34  C         28.3470   80.6440   26.5990 C.2    92  TRP92       0.2264
     35  O         27.8730   79.8830   27.4420 O.2    92  TRP92      -0.2867
     36  CB        28.6280   79.4390   24.4270 C.3    92  TRP92       0.0550
     37  CG        27.8090   80.3260   23.5390 C.ar   92  TRP92       0.0003
     38  CD1       26.5550   80.0690   23.0640 C.ar   92  TRP92       0.0946
     39  CD2       28.2050   81.5800   22.9680 C.ar   92  TRP92       0.0152
     40  NE1       26.1440   81.0830   22.2330 N.ar   92  TRP92      -0.2442
     41  CE2       27.1360   82.0240   22.1560 C.ar   92  TRP92       0.0810
     42  CE3       29.3580   82.3730   23.0620 C.ar   92  TRP92       0.0012
     43  CZ2       27.1850   83.2290   21.4400 C.ar   92  TRP92       0.0191
     44  CZ3       29.4080   83.5720   22.3510 C.ar   92  TRP92       0.0001
     45  CH2       28.3250   83.9870   21.5500 C.ar   92  TRP92       0.0015
     46  N         29.2100   76.8620   29.8280 N.3   100  GLU100     -0.1245
     47  CA        29.0530   75.5300   29.2590 C.3   100  GLU100      0.1567
     48  C         30.0530   74.6280   29.9660 C.2   100  GLU100      0.2260
     49  O         31.2640   74.8020   29.8260 O.2   100  GLU100     -0.2867
     50  CB        29.3150   75.5680   27.7500 C.3   100  GLU100      0.0388
     51  CG        28.3590   76.4920   26.9980 C.3   100  GLU100      0.1160
     52  CD        28.5260   76.4180   25.4910 C.2   100  GLU100      0.3649
     53  OE1       29.6360   76.7160   24.9990 O.co2 100  GLU100     -0.2457
     54  OE2       27.5440   76.0620   24.8000 O.co2 100  GLU100     -0.2457
     55  N         29.8570   66.6130   18.3820 N.3   106  ILE106     -0.1245
     56  CA        29.1630   67.3740   17.3550 C.3   106  ILE106      0.1561
     57  C         29.5950   66.8900   15.9690 C.2   106  ILE106      0.2260
     58  O         29.7960   65.6890   15.7610 O.2   106  ILE106     -0.2867
     59  CB        29.4480   68.8890   17.4870 C.3   106  ILE106      0.0252
     60  CG1       30.9540   69.1480   17.4660 C.3   106  ILE106      0.0019
     61  CG2       28.8240   69.4190   18.7670 C.3   106  ILE106      0.0019
     62  CD1       31.3250   70.6240   17.5190 C.3   106  ILE106      0.0001
     63  N         32.3790   69.6310   21.6600 N.3   112  ASN112     -0.1225
     64  CA        31.8640   70.9590   21.9430 C.3   112  ASN112      0.1785
     65  C         31.2690   70.8920   23.3410 C.2   112  ASN112      0.2597
     66  O         30.6390   69.8990   23.7060 O.2   112  ASN112     -0.2718
     67  CB        30.7720   71.3570   20.9390 C.3   112  ASN112      0.1169
     68  CG        30.0290   72.6320   21.3480 C.2   112  ASN112      0.2627
     69  OD1       30.6430   73.6690   21.6170 O.2   112  ASN112     -0.2716
     70  ND2       28.7010   72.5570   21.3870 N.am  112  ASN112     -0.0877
     71  N         31.4910   71.9390   24.1240 N.am  113  ASP113     -0.1960
     72  CA        30.9590   72.0120   25.4790 C.3   113  ASP113      0.1840
     73  C         29.6180   72.7360   25.4030 C.2   113  ASP113      0.2622
     74  O         29.5480   73.8560   24.9000 O.2   113  ASP113     -0.2715
     75  CB        31.9280   72.7820   26.3710 C.3   113  ASP113      0.1450
     76  CG        32.1960   74.1870   25.8650 C.2   113  ASP113      0.3671
     77  OD1       32.1450   74.3930   24.6340 O.co2 113  ASP113     -0.2456
     78  OD2       32.4720   75.0760   26.6990 O.co2 113  ASP113     -0.2456
     79  N         28.5630   72.0860   25.8930 N.am  114  PHE114     -0.1974
     80  CA        27.2130   72.6430   25.8730 C.3   114  PHE114      0.1639
     81  C         26.7240   73.0370   27.2580 C.2   114  PHE114      0.2290
     82  O         27.3760   72.7850   28.2670 O.2   114  PHE114     -0.2864
     83  CB        26.1990   71.6190   25.3610 C.3   114  PHE114      0.0560
     84  CG        26.5260   71.0200   24.0330 C.ar  114  PHE114     -0.0200
     85  CD1       27.6060   70.1610   23.8850 C.ar  114  PHE114     -0.0042
     86  CD2       25.7080   71.2630   22.9370 C.ar  114  PHE114     -0.0042
     87  CE1       27.8640   69.5490   22.6640 C.ar  114  PHE114     -0.0003
     88  CE2       25.9560   70.6570   21.7110 C.ar  114  PHE114     -0.0003
     89  CZ        27.0360   69.7970   21.5750 C.ar  114  PHE114     -0.0000
@<TRIPOS>BOND
     1     9     8    1
     2     8     7    1
     3    14    11    1
     4    58    57    2
     5     7     6    1
     6    57    56    1
     7     6     5    1
     8    10    11    1
     9    10     3   am
    10    11    12    1
    11    13    12    2
    12     5     2    1
    13    56    59    1
    14    56    55    1
    15    60    59    1
    16    60    62    1
    17    59    61    1
    18     2     3    1
    19     2     1    1
    20     3     4    2
    21    23    21   am
    22    20    21    1
    23    20    19    1
    24    15    16    1
    25    67    68    1
    26    67    64    1
    27    21    22    2
    28    68    70   am
    29    68    69    2
    30    43    45   ar
    31    43    41   ar
    32    19    16    1
    33    45    44   ar
    34    89    88   ar
    35    89    87   ar
    36    63    64    1
    37    88    86   ar
    38    16    17    1
    39    64    65    1
    40    31    29   ar
    41    41    40   ar
    42    41    39   ar
    43    40    38   ar
    44    44    42   ar
    45    18    17    2
    46    87    85   ar
    47    86    84   ar
    48    29    28    1
    49    29    30   ar
    50    39    42   ar
    51    39    37   ar
    52    38    37   ar
    53    28    25    1
    54    65    66    2
    55    65    71   am
    56    37    36    1
    57    85    84   ar
    58    84    83    1
    59    71    72    1
    60    24    25    1
    61    25    26    1
    62    36    33    1
    63    77    76   ar
    64    54    52   ar
    65    74    73    2
    66    53    52   ar
    67    83    80    1
    68    73    72    1
    69    73    79   am
    70    72    75    1
    71    52    51    1
    72    33    32    1
    73    33    34    1
    74    26    27    2
    75    76    75    1
    76    76    78   ar
    77    80    79    1
    78    80    81    1
    79    34    35    2
    80    51    50    1
    81    81    82    2
    82    50    47    1
    83    47    46    1
    84    47    48    1
    85    49    48    2
