@<TRIPOS>MOLECULE
tmp/2oxbA00.pdb
 104 99 0 0 0
SMALL
GASTEIGER

@<TRIPOS>ATOM
      1  N        144.5210  -88.7600   -6.4650 N.3    16  TRP16      -0.1241
      2  CA       143.4020  -88.8520   -5.5080 C.3    16  TRP16       0.1605
      3  C        142.2170  -87.9350   -5.7690 C.2    16  TRP16       0.2264
      4  O        142.3630  -86.8250   -6.2770 O.2    16  TRP16      -0.2867
      5  CB       143.9100  -88.6390   -4.0470 C.3    16  TRP16       0.0550
      6  CG       142.8100  -88.6060   -2.9310 C.ar   16  TRP16       0.0003
      7  CD1      141.9890  -87.5510   -2.6200 C.ar   16  TRP16       0.0946
      8  CD2      142.3610  -89.7070   -2.1040 C.ar   16  TRP16       0.0152
      9  NE1      141.0610  -87.9270   -1.6720 N.ar   16  TRP16      -0.2442
     10  CE2      141.2670  -89.2400   -1.3390 C.ar   16  TRP16       0.0810
     11  CE3      142.7770  -91.0360   -1.9400 C.ar   16  TRP16       0.0012
     12  CZ2      140.5750  -90.0570   -0.4400 C.ar   16  TRP16       0.0191
     13  CZ3      142.0910  -91.8480   -1.0440 C.ar   16  TRP16       0.0001
     14  CH2      141.0020  -91.3530   -0.3040 C.ar   16  TRP16       0.0015
     15  N        131.0040  -94.9760   10.4900 N.3   237  THR237     -0.1203
     16  CA       130.4150  -96.0920    9.7570 C.3   237  THR237      0.1994
     17  C        130.7590  -95.9860    8.2770 C.2   237  THR237      0.2617
     18  O        130.7490  -96.9790    7.5590 O.2   237  THR237     -0.2717
     19  CB       128.8830  -96.1470    9.8810 C.3   237  THR237      0.1784
     20  OG1      128.2870  -95.2680    8.9170 O.3   237  THR237     -0.2211
     21  CG2      128.4520  -95.7500   11.2830 C.3   237  THR237      0.0376
     22  N        131.0700  -94.7840    7.8080 N.am  238  LYS238     -0.1979
     23  CA       131.4210  -94.6430    6.4030 C.3   238  LYS238      0.1596
     24  C        130.2690  -95.0540    5.4760 C.2   238  LYS238      0.2287
     25  O        130.4750  -95.7610    4.4870 O.2   238  LYS238     -0.2864
     26  CB       132.6450  -95.5030    6.1040 C.3   238  LYS238      0.0298
     27  CG       133.9440  -94.8480    6.4490 C.3   238  LYS238      0.0038
     28  CD       134.4160  -93.9890    5.2870 C.3   238  LYS238      0.0206
     29  CE       135.5950  -93.1070    5.6870 C.3   238  LYS238      0.1093
     30  NZ       135.1990  -92.1740    6.7840 N.3   238  LYS238     -0.1314
     31  N        129.6110  -99.5740   -1.3510 N.3   273  LYS273     -0.1245
     32  CA       130.6320  -98.5450   -1.2340 C.3   273  LYS273      0.1561
     33  C        130.1470  -97.1780   -1.7000 C.2   273  LYS273      0.2260
     34  O        130.3490  -96.7930   -2.8530 O.2   273  LYS273     -0.2867
     35  CB       131.8860  -98.9330   -2.0220 C.3   273  LYS273      0.0271
     36  CG       133.1460  -98.1840   -1.5900 C.3   273  LYS273      0.0035
     37  CD       133.6390  -98.6530   -0.2210 C.3   273  LYS273      0.0206
     38  CE       134.5730  -99.8580   -0.3190 C.3   273  LYS273      0.1093
     39  NZ       135.8750  -99.5680   -1.0250 N.3   273  LYS273     -0.1314
     40  N        134.5210  -94.9240   -2.3700 N.3   295  ASN295     -0.1225
     41  CA       135.8960  -95.2210   -2.0250 C.3   295  ASN295      0.1785
     42  C        136.5790  -96.0200   -3.1060 C.2   295  ASN295      0.2597
     43  O        136.0300  -96.2950   -4.1650 O.2   295  ASN295     -0.2718
     44  CB       135.9170  -96.0870   -0.7670 C.3   295  ASN295      0.1169
     45  CG       136.6720  -95.4670    0.3690 C.2   295  ASN295      0.2627
     46  OD1      137.5930  -94.6760    0.1640 O.2   295  ASN295     -0.2716
     47  ND2      136.2960  -95.8560    1.5850 N.am  295  ASN295     -0.0877
     48  N        137.7850  -96.4410   -2.7680 N.am  296  GLU296     -0.1965
     49  CA       138.6140  -97.2550   -3.6270 C.3   296  GLU296      0.1733
     50  C        138.8350  -98.5500   -2.8340 C.2   296  GLU296      0.2617
     51  O        139.5230  -98.5190   -1.8170 O.2   296  GLU296     -0.2715
     52  CB       139.9460  -96.5570   -3.8270 C.3   296  GLU296      0.0429
     53  CG       140.7500  -97.0840   -4.9770 C.3   296  GLU296      0.1163
     54  CD       140.2910  -96.5030   -6.2940 C.2   296  GLU296      0.3649
     55  OE1      140.2680  -95.2620   -6.3830 O.co2 296  GLU296     -0.2457
     56  OE2      139.9610  -97.2810   -7.2200 O.co2 296  GLU296     -0.2457
     57  N        138.2600  -99.6700   -3.2810 N.am  297  SER297     -0.1936
     58  CA       138.4000 -100.9540   -2.5760 C.3   297  SER297      0.2055
     59  C        139.7780 -101.6140   -2.6880 C.2   297  SER297      0.2644
     60  O        139.9850 -102.7130   -2.1750 O.2   297  SER297     -0.2714
     61  CB       137.3380 -101.9570   -3.0590 C.3   297  SER297      0.2130
     62  OG       136.0520 -101.6890   -2.5190 O.3   297  SER297     -0.2179
     63  N        140.7150 -100.9540   -3.3610 N.am  298  SER298     -0.1935
     64  CA       142.0630 -101.4970   -3.5180 C.3   298  SER298      0.2055
     65  C        142.9610 -100.9250   -2.4420 C.2   298  SER298      0.2644
     66  O        142.7560  -99.8060   -1.9760 O.2   298  SER298     -0.2714
     67  CB       142.6420 -101.1250   -4.8790 C.3   298  SER298      0.2130
     68  OG       143.0510  -99.7710   -4.8840 O.3   298  SER298     -0.2179
     69  N        143.9670 -101.6920   -2.0520 N.am  299  SER299     -0.1935
     70  CA       144.8920 -101.2400   -1.0320 C.3   299  SER299      0.2055
     71  C        145.5820  -99.9630   -1.5020 C.2   299  SER299      0.2642
     72  O        145.7910  -99.7640   -2.6910 O.2   299  SER299     -0.2714
     73  CB       145.9340 -102.3250   -0.7570 C.3   299  SER299      0.2130
     74  OG       146.8740 -102.3910   -1.8160 O.3   299  SER299     -0.2179
     75  N        145.9360  -99.1080   -0.5520 N.am  300  VAL300     -0.1977
     76  CA       146.6050  -97.8540   -0.8500 C.3   300  VAL300      0.1596
     77  C        147.8730  -98.0980   -1.6400 C.2   300  VAL300      0.2287
     78  O        148.2180  -97.3180   -2.5240 O.2   300  VAL300     -0.2864
     79  CB       146.9730  -97.1070    0.4450 C.3   300  VAL300      0.0276
     80  CG1      147.6670  -95.7870    0.1240 C.3   300  VAL300      0.0022
     81  CG2      145.7140  -96.8790    1.2700 C.3   300  VAL300      0.0022
     82  N        146.8480  -97.5050   -4.9870 N.3   303  ASP303     -0.1239
     83  CA       146.5520  -96.1370   -5.3840 C.3   303  ASP303      0.1674
     84  C        147.8700  -95.4430   -5.6820 C.2   303  ASP303      0.2266
     85  O        147.9490  -94.5700   -6.5530 O.2   303  ASP303     -0.2867
     86  CB       145.8370  -95.3710   -4.2640 C.3   303  ASP303      0.1410
     87  CG       144.5710  -96.0650   -3.7750 C.2   303  ASP303      0.3668
     88  OD1      144.0790  -96.9950   -4.4570 O.co2 303  ASP303     -0.2456
     89  OD2      144.0680  -95.6620   -2.7040 O.co2 303  ASP303     -0.2456
     90  N        139.2350 -105.0710   -1.0480 N.3   457  ASP457     -0.1239
     91  CA       138.0690 -104.9440   -0.1850 C.3   457  ASP457      0.1674
     92  C        137.0070 -105.9500   -0.6430 C.2   457  ASP457      0.2266
     93  O        136.0770 -105.5960   -1.3620 O.2   457  ASP457     -0.2867
     94  CB       137.5450 -103.5130   -0.2960 C.3   457  ASP457      0.1410
     95  CG       136.9470 -103.0050    0.9920 C.2   457  ASP457      0.3668
     96  OD1      136.7930 -101.7700    1.1310 O.co2 457  ASP457     -0.2456
     97  OD2      136.6290 -103.8410    1.8590 O.co2 457  ASP457     -0.2456
     98  N        134.6770 -107.3690    1.0580 N.3   459  THR459     -0.1218
     99  CA       133.4640 -107.3660    1.8610 C.3   459  THR459      0.1862
    100  C        132.2070 -107.3090    1.0030 C.2   459  THR459      0.2287
    101  O        132.0470 -106.4400    0.1460 O.2   459  THR459     -0.2866
    102  CB       133.4260 -106.1830    2.8940 C.3   459  THR459      0.1770
    103  OG1      132.6710 -105.0820    2.3660 O.3   459  THR459     -0.2211
    104  CG2      134.8360 -105.7120    3.2290 C.3   459  THR459      0.0375
@<TRIPOS>BOND
     1    56    54   ar
     2    85    84    2
     3     1     2    1
     4    55    54   ar
     5    54    53    1
     6     4     3    2
     7     3     2    1
     8    84    83    1
     9     2     5    1
    10    83    82    1
    11    83    86    1
    12    53    52    1
    13    68    67    1
    14    67    64    1
    15    88    87   ar
    16    86    87    1
    17    43    42    2
    18     5     6    1
    19    52    49    1
    20    87    89   ar
    21    49    50    1
    22    49    48    1
    23    64    63    1
    24    64    65    1
    25    63    59   am
    26    57    50   am
    27    57    58    1
    28    42    48   am
    29    42    41    1
    30    61    58    1
    31    61    62    1
    32     6     7   ar
    33     6     8   ar
    34    34    33    2
    35    50    51    2
    36    72    71    2
    37    59    58    1
    38    59    60    2
    39     7     9   ar
    40    78    77    2
    41    65    69   am
    42    65    66    2
    43    40    41    1
    44     8    11   ar
    45     8    10   ar
    46    69    70    1
    47    41    44    1
    48    35    36    1
    49    35    32    1
    50    11    13   ar
    51    74    73    1
    52    33    32    1
    53     9    10   ar
    54    77    76    1
    55    36    37    1
    56    71    70    1
    57    71    75   am
    58    93    92    2
    59    31    32    1
    60    10    12   ar
    61    90    91    1
    62    13    14   ar
    63    70    73    1
    64    39    38    1
    65    76    75    1
    66    76    79    1
    67    44    45    1
    68    92    91    1
    69    12    14   ar
    70    38    37    1
    71    94    91    1
    72    94    95    1
    73    80    79    1
    74   101   100    2
    75    46    45    2
    76    45    47   am
    77    79    81    1
    78    95    96   ar
    79    95    97   ar
    80   100    99    1
    81    98    99    1
    82    99   102    1
    83   103   102    1
    84   102   104    1
    85    25    24    2
    86    28    29    1
    87    28    27    1
    88    24    23    1
    89    29    30    1
    90    26    23    1
    91    26    27    1
    92    23    22    1
    93    18    17    2
    94    22    17   am
    95    17    16    1
    96    20    19    1
    97    16    19    1
    98    16    15    1
    99    19    21    1
