@<TRIPOS>MOLECULE
tmp/2oxcA00.pdb
 119 114 0 0 0
SMALL
GASTEIGER

@<TRIPOS>ATOM
      1  N         51.0250    6.4580   24.6850 N.3     3  PHE3       -0.1241
      2  CA        51.3510    6.0080   23.3460 C.3     3  PHE3        0.1605
      3  C         52.2730    4.7880   23.3960 C.2     3  PHE3        0.2264
      4  O         52.1880    3.9240   22.5410 O.2     3  PHE3       -0.2867
      5  CB        51.9520    7.1370   22.5060 C.3     3  PHE3        0.0534
      6  CG        50.9280    8.0940   21.9180 C.ar    3  PHE3       -0.0203
      7  CD1       50.0480    7.6810   20.9260 C.ar    3  PHE3       -0.0042
      8  CD2       50.8910    9.4250   22.3190 C.ar    3  PHE3       -0.0042
      9  CE1       49.1300    8.5730   20.3710 C.ar    3  PHE3       -0.0003
     10  CE2       49.9740   10.3160   21.7730 C.ar    3  PHE3       -0.0003
     11  CZ        49.0870    9.8920   20.8100 C.ar    3  PHE3       -0.0000
     12  N         53.3390   17.8650   19.8060 N.3    20  GLY20      -0.1210
     13  CA        52.3800   18.2980   20.8310 C.3    20  GLY20       0.1956
     14  C         51.3220   17.2700   21.2100 C.2    20  GLY20       0.2612
     15  O         50.3270   17.6040   21.8520 O.2    20  GLY20      -0.2717
     16  N         51.5210   16.0170   20.8140 N.am   21  PHE21      -0.1962
     17  CA        50.5760   14.9560   21.1500 C.3    21  PHE21       0.1771
     18  C         51.1330   14.1340   22.2980 C.2    21  PHE21       0.2619
     19  O         51.9330   13.2190   22.0990 O.2    21  PHE21      -0.2715
     20  CB        50.2790   14.1080   19.9240 C.3    21  PHE21       0.0574
     21  CG        49.8280   14.9160   18.7420 C.ar   21  PHE21      -0.0200
     22  CD1       48.7860   15.8400   18.8720 C.ar   21  PHE21      -0.0042
     23  CD2       50.4680   14.8090   17.5270 C.ar   21  PHE21      -0.0042
     24  CE1       48.3760   16.5980   17.7880 C.ar   21  PHE21      -0.0003
     25  CE2       50.0460   15.5480   16.4290 C.ar   21  PHE21      -0.0003
     26  CZ        48.9920   16.4350   16.5560 C.ar   21  PHE21      -0.0000
     27  N         50.7130   14.4850   23.5130 N.am   22  GLU22      -0.1963
     28  CA        51.2820   13.8940   24.7190 C.3    22  GLU22       0.1733
     29  C         50.6590   12.5420   25.0560 C.2    22  GLU22       0.2616
     30  O         51.3780   11.6050   25.4100 O.2    22  GLU22      -0.2715
     31  CB        51.1490   14.8550   25.9090 C.3    22  GLU22       0.0429
     32  CG        51.9500   14.4530   27.1400 C.3    22  GLU22       0.1163
     33  CD        53.4710   14.4580   26.9330 C.2    22  GLU22       0.3649
     34  OE1       53.9690   15.0950   25.9720 O.co2  22  GLU22      -0.2457
     35  OE2       54.1730   13.8280   27.7590 O.co2  22  GLU22      -0.2457
     36  N         49.3310   12.4420   24.9530 N.am   23  ARG23      -0.1977
     37  CA        48.6120   11.2060   25.2900 C.3    23  ARG23       0.1597
     38  C         47.5830   10.8900   24.2050 C.2    23  ARG23       0.2287
     39  O         47.0040   11.8060   23.6440 O.2    23  ARG23      -0.2864
     40  CB        47.8940   11.3530   26.6280 C.3    23  ARG23       0.0334
     41  CG        48.7880   11.7360   27.7900 C.3    23  ARG23       0.0492
     42  CD        49.7060   10.5950   28.2190 C.3    23  ARG23       0.2205
     43  NE        50.5770   11.0120   29.3190 N.pl3  23  ARG23      -0.0865
     44  CZ        51.8840   11.2830   29.2270 C.cat  23  ARG23       0.5346
     45  NH1       52.5390   11.1640   28.0740 N.pl3  23  ARG23       0.1354
     46  NH2       52.5490   11.6640   30.3100 N.pl3  23  ARG23       0.1354
     47  N         44.1270   10.1310   22.3530 N.3    25  SER25      -0.1217
     48  CA        42.6850   10.2950   22.5120 C.3    25  SER25       0.1889
     49  C         41.9880    8.9260   22.5130 C.2    25  SER25       0.2288
     50  O         42.5850    7.9210   22.1260 O.2    25  SER25      -0.2866
     51  CB        42.1280   11.1530   21.3810 C.3    25  SER25       0.2089
     52  OG        42.1170   10.4050   20.1720 O.3    25  SER25      -0.2183
     53  N         42.2250    7.0980   19.2700 N.3    28  GLN28      -0.1245
     54  CA        43.5980    6.6720   19.0270 C.3    28  GLN28       0.1566
     55  C         43.9740    5.4230   19.8260 C.2    28  GLN28       0.2260
     56  O         44.6060    4.5090   19.3050 O.2    28  GLN28      -0.2867
     57  CB        44.5270    7.8480   19.3050 C.3    28  GLN28       0.0367
     58  CG        44.3630    8.9540   18.2570 C.3    28  GLN28       0.0905
     59  CD        44.8210   10.3370   18.6980 C.2    28  GLN28       0.2608
     60  OE1       45.4140   10.5260   19.7690 O.2    28  GLN28      -0.2717
     61  NE2       44.5240   11.3340   17.8440 N.am   28  GLN28      -0.0878
     62  N         33.8780   14.9640   14.1020 N.3    47  SER47      -0.1202
     63  CA        35.0250   15.8280   13.8980 C.3    47  SER47       0.2020
     64  C         35.6760   16.1820   15.2330 C.2    47  SER47       0.2619
     65  O         35.0140   16.3590   16.2650 O.2    47  SER47      -0.2717
     66  CB        34.6160   17.0870   13.1510 C.3    47  SER47       0.2103
     67  OG        33.6420   17.8040   13.8520 O.3    47  SER47      -0.2182
     68  N         36.9980   16.2830   15.1980 N.am   48  GLY48      -0.1942
     69  CA        37.7690   16.6940   16.3420 C.3    48  GLY48       0.2014
     70  C         38.1860   15.6110   17.3100 C.2    48  GLY48       0.2640
     71  O         38.8050   15.9160   18.3320 O.2    48  GLY48      -0.2714
     72  N         37.8620   14.3480   17.0010 N.am   49  THR49      -0.1936
     73  CA        38.1740   13.2440   17.8960 C.3    49  THR49       0.2028
     74  C         39.5870   12.6920   17.7100 C.2    49  THR49       0.2643
     75  O         40.0690   11.9110   18.5450 O.2    49  THR49      -0.2714
     76  CB        37.1430   12.0890   17.7490 C.3    49  THR49       0.1808
     77  OG1       37.0070   11.7400   16.3680 O.3    49  THR49      -0.2208
     78  CG2       35.7790   12.5040   18.3320 C.3    49  THR49       0.0379
     79  N         40.2430   13.0630   16.6150 N.am   50  GLY50      -0.1939
     80  CA        41.6370   12.6630   16.3760 C.3    50  GLY50       0.2014
     81  C         41.8630   11.6650   15.2590 C.2    50  GLY50       0.2639
     82  O         42.8950   10.9900   15.2210 O.2    50  GLY50      -0.2714
     83  N         40.9040   11.5710   14.3400 N.am   51  LYS51      -0.1963
     84  CA        40.9800   10.5790   13.2560 C.3    51  LYS51       0.1728
     85  C         42.1250   10.8320   12.2680 C.2    51  LYS51       0.2617
     86  O         42.7640    9.8890   11.7900 O.2    51  LYS51      -0.2715
     87  CB        39.6590   10.5230   12.4900 C.3    51  LYS51       0.0311
     88  CG        38.4690   10.1280   13.3450 C.3    51  LYS51       0.0038
     89  CD        37.1710   10.0230   12.5630 C.3    51  LYS51       0.0206
     90  CE        36.7820   11.2580   11.7760 C.3    51  LYS51       0.1093
     91  NZ        36.5440   12.4540   12.6490 N.3    51  LYS51      -0.1314
     92  N         42.3830   12.0890   11.9410 N.am   52  THR52      -0.1937
     93  CA        43.4790   12.4160   11.0150 C.3    52  THR52       0.2028
     94  C         44.8050   12.0010   11.6330 C.2    52  THR52       0.2642
     95  O         45.6850   11.4160   10.9770 O.2    52  THR52      -0.2714
     96  CB        43.4600   13.9200   10.6340 C.3    52  THR52       0.1808
     97  OG1       42.1680   14.2500   10.0970 O.3    52  THR52      -0.2208
     98  CG2       44.5550   14.2550    9.6020 C.3    52  THR52       0.0379
     99  N         44.9640   12.3100   12.9100 N.am   53  CYS53      -0.1967
    100  CA        46.1520   11.9090   13.5940 C.3    53  CYS53       0.1712
    101  C         46.2420   10.3660   13.6920 C.2    53  CYS53       0.2296
    102  O         47.3430    9.8080   13.5300 O.2    53  CYS53      -0.2864
    103  CB        46.2370   12.6520   14.9360 C.3    53  CYS53       0.0983
    104  SG        46.5260   14.4640   14.7270 S.3    53  CYS53      -0.0798
    105  N         50.1330   17.3230    9.0250 N.3    88  VAL88      -0.1245
    106  CA        50.1200   16.4140   10.1760 C.3    88  VAL88       0.1561
    107  C         51.2200   15.3560   10.0410 C.2    88  VAL88       0.2260
    108  O         51.9680   15.0890   10.9860 O.2    88  VAL88      -0.2867
    109  CB        48.7180   15.7570   10.3760 C.3    88  VAL88       0.0252
    110  CG1       48.7690   14.6830   11.4740 C.3    88  VAL88       0.0019
    111  CG2       47.6680   16.8250   10.7170 C.3    88  VAL88       0.0019
    112  N         40.3540    9.6640    3.6640 N.3   150  ASP150     -0.1239
    113  CA        39.9830   10.6610    4.6770 C.3   150  ASP150      0.1674
    114  C         38.6580   11.3160    4.2850 C.2   150  ASP150      0.2266
    115  O         38.4470   11.6660    3.1240 O.2   150  ASP150     -0.2867
    116  CB        41.0780   11.7190    4.7630 C.3   150  ASP150      0.1410
    117  CG        40.8940   12.6970    5.9040 C.2   150  ASP150      0.3668
    118  OD1       40.2420   12.3630    6.9180 O.co2 150  ASP150     -0.2456
    119  OD2       41.4620   13.8180    5.7810 O.co2 150  ASP150     -0.2456
@<TRIPOS>BOND
     1   115   114    2
     2   112   113    1
     3   114   113    1
     4   113   116    1
     5   116   117    1
     6   119   117   ar
     7   117   118   ar
     8   105   106    1
     9    98    96    1
    10   107   106    1
    11   107   108    2
    12    97    96    1
    13   106   109    1
    14   109   111    1
    15   109   110    1
    16    96    93    1
    17    95    94    2
    18    93    94    1
    19    93    92    1
    20    94    99   am
    21    90    89    1
    22    90    91    1
    23    86    85    2
    24    92    85   am
    25    85    84    1
    26    87    84    1
    27    87    88    1
    28    89    88    1
    29    99   100    1
    30    66    67    1
    31    66    63    1
    32    84    83    1
    33   102   101    2
    34   100   101    1
    35   100   103    1
    36    63    62    1
    37    63    64    1
    38    83    81   am
    39   104   103    1
    40    68    64   am
    41    68    69    1
    42    82    81    2
    43    64    65    2
    44    81    80    1
    45    69    70    1
    46    77    76    1
    47    80    79    1
    48    25    26   ar
    49    25    23   ar
    50    26    24   ar
    51    79    74   am
    52    72    70   am
    53    72    73    1
    54    70    71    2
    55    23    21   ar
    56    74    73    1
    57    74    75    2
    58    76    73    1
    59    76    78    1
    60    24    22   ar
    61    61    59   am
    62    58    59    1
    63    58    57    1
    64    59    60    2
    65    21    22   ar
    66    21    20    1
    67    54    53    1
    68    54    57    1
    69    54    55    1
    70    56    55    2
    71    12    13    1
    72    20    17    1
    73    52    51    1
    74     9    11   ar
    75     9     7   ar
    76    11    10   ar
    77    16    17    1
    78    16    14   am
    79    13    14    1
    80     7     6   ar
    81    17    18    1
    82    14    15    2
    83    51    48    1
    84    10     8   ar
    85     6     8   ar
    86     6     5    1
    87    19    18    2
    88    50    49    2
    89    18    27   am
    90    47    48    1
    91     5     2    1
    92    48    49    1
    93     4     3    2
    94     2     3    1
    95     2     1    1
    96    27    28    1
    97    39    38    2
    98    38    37    1
    99    28    29    1
   100    28    31    1
   101    36    29   am
   102    36    37    1
   103    29    30    2
   104    37    40    1
   105    31    32    1
   106    34    33   ar
   107    40    41    1
   108    33    32    1
   109    33    35   ar
   110    41    42    1
   111    45    44    1
   112    42    43    1
   113    44    43    2
   114    44    46    1
