@<TRIPOS>MOLECULE
tmp/2oxeA00.pdb
 119 117 0 0 0
SMALL
GASTEIGER

@<TRIPOS>ATOM
      1  N         43.4790   -2.4040   36.4350 N.3   267  ASN267     -0.1240
      2  CA        43.7980   -0.9880   36.2490 C.3   267  ASN267      0.1653
      3  C         43.3110   -0.1940   37.4670 C.2   267  ASN267      0.2266
      4  O         42.1890    0.3450   37.4680 O.2   267  ASN267     -0.2867
      5  CB        43.1630   -0.4530   34.9690 C.3   267  ASN267      0.1155
      6  CG        43.3710   -1.3700   33.7870 C.2   267  ASN267      0.2627
      7  OD1       44.4290   -1.3690   33.1690 O.2   267  ASN267     -0.2716
      8  ND2       42.3510   -2.1480   33.4560 N.am  267  ASN267     -0.0877
      9  N         34.9550    1.6530   25.4490 N.3   323  SER323     -0.1202
     10  CA        35.2090    0.2370   25.1530 C.3   323  SER323      0.2020
     11  C         36.5170   -0.2610   25.7560 C.2   323  SER323      0.2619
     12  O         37.3520    0.5310   26.2060 O.2   323  SER323     -0.2717
     13  CB        35.2530    0.0210   23.6410 C.3   323  SER323      0.2103
     14  OG        36.2110    0.8850   23.0510 O.3   323  SER323     -0.2182
     15  N         36.6850   -1.5810   25.7520 N.am  324  GLY324     -0.1942
     16  CA        37.9570   -2.2160   26.0890 C.3   324  GLY324      0.2014
     17  C         38.2270   -2.3210   27.5730 C.2   324  GLY324      0.2638
     18  O         37.4940   -2.9910   28.3060 O.2   324  GLY324     -0.2714
     19  N         39.2970   -1.6680   28.0090 N.am  325  ASN325     -0.1972
     20  CA        39.6760   -1.6450   29.4160 C.3   325  ASN325      0.1688
     21  C         38.8910   -0.5810   30.1850 C.2   325  ASN325      0.2292
     22  O         38.9270   -0.5430   31.4140 O.2   325  ASN325     -0.2864
     23  CB        41.1790   -1.4020   29.5430 C.3   325  ASN325      0.1181
     24  CG        41.6280   -0.1750   28.7770 C.2   325  ASN325      0.2629
     25  OD1       41.3620    0.9530   29.2000 O.2   325  ASN325     -0.2716
     26  ND2       42.2800   -0.3910   27.6230 N.am  325  ASN325     -0.0877
     27  N         39.2860    2.3880   30.9270 N.3   327  THR327     -0.1218
     28  CA        40.0020    3.3900   31.7200 C.3   327  THR327      0.1862
     29  C         39.9810    4.7850   31.0950 C.2   327  THR327      0.2287
     30  O         39.8850    4.9280   29.8760 O.2   327  THR327     -0.2866
     31  CB        41.4580    2.9740   32.0070 C.3   327  THR327      0.1770
     32  OG1       42.1960    2.9060   30.7790 O.3   327  THR327     -0.2211
     33  CG2       41.5030    1.6350   32.7020 C.3   327  THR327      0.0375
     34  N         41.4270    9.1030   32.2410 N.3   329  TRP329     -0.1241
     35  CA        41.9890   10.0940   33.1440 C.3   329  TRP329      0.1605
     36  C         41.5060   11.4590   32.6930 C.2   329  TRP329      0.2264
     37  O         41.4510   11.7220   31.4860 O.2   329  TRP329     -0.2867
     38  CB        43.5080   10.0410   33.1000 C.3   329  TRP329      0.0550
     39  CG        44.0830    8.9310   33.8930 C.ar  329  TRP329      0.0003
     40  CD1       44.6870    9.0280   35.1130 C.ar  329  TRP329      0.0946
     41  CD2       44.1160    7.5420   33.5360 C.ar  329  TRP329      0.0152
     42  NE1       45.0910    7.7860   35.5450 N.ar  329  TRP329     -0.2442
     43  CE2       44.7550    6.8550   34.5970 C.ar  329  TRP329      0.0810
     44  CE3       43.6670    6.8090   32.4280 C.ar  329  TRP329      0.0012
     45  CZ2       44.9550    5.4720   34.5810 C.ar  329  TRP329      0.0191
     46  CZ3       43.8610    5.4370   32.4180 C.ar  329  TRP329      0.0001
     47  CH2       44.5050    4.7830   33.4850 C.ar  329  TRP329      0.0015
     48  N         53.6200    7.4660   26.4830 N.3   356  GLU356     -0.1231
     49  CA        53.2790    7.5160   25.0610 C.3   356  GLU356      0.1699
     50  C         52.7510    8.9180   24.7690 C.2   356  GLU356      0.2592
     51  O         53.0020    9.8510   25.5380 O.2   356  GLU356     -0.2718
     52  CB        52.2400    6.4450   24.7060 C.3   356  GLU356      0.0402
     53  CG        52.8460    5.2540   23.9120 C.3   356  GLU356      0.1161
     54  CD        53.4430    5.6680   22.6050 C.2   356  GLU356      0.3649
     55  OE1       53.2350    6.7590   22.1120 O.co2 356  GLU356     -0.2457
     56  OE2       54.1730    4.7370   22.0310 O.co2 356  GLU356     -0.2457
     57  N         52.0340    9.0800   23.6650 N.am  357  ASN357     -0.1960
     58  CA        51.3520   10.3420   23.4150 C.3   357  ASN357      0.1819
     59  C         49.9170   10.1540   22.9360 C.2   357  ASN357      0.2622
     60  O         49.6090    9.1870   22.2370 O.2   357  ASN357     -0.2715
     61  CB        52.1620   11.2410   22.4740 C.3   357  ASN357      0.1195
     62  CG        52.2620   10.6900   21.0650 C.2   357  ASN357      0.2630
     63  OD1       53.3330   10.2550   20.6350 O.2   357  ASN357     -0.2716
     64  ND2       51.1490   10.7200   20.3300 N.am  357  ASN357     -0.0877
     65  N         49.0570   11.0920   23.3240 N.am  358  SER358     -0.1936
     66  CA        47.6190   11.0160   23.0710 C.3   358  SER358      0.2055
     67  C         47.2660   11.2820   21.6140 C.2   358  SER358      0.2643
     68  O         48.1190   11.6890   20.8220 O.2   358  SER358     -0.2714
     69  CB        46.8740   12.0120   23.9730 C.3   358  SER358      0.2130
     70  OG        47.0420   13.3550   23.5360 O.3   358  SER358     -0.2179
     71  N         46.0030   11.0430   21.2680 N.am  359  LYS359     -0.1963
     72  CA        45.4520   11.4950   19.9960 C.3   359  LYS359      0.1728
     73  C         45.1350   12.9890   20.0930 C.2   359  LYS359      0.2616
     74  O         45.3180   13.6000   21.1510 O.2   359  LYS359     -0.2715
     75  CB        44.1940   10.7010   19.6280 C.3   359  LYS359      0.0311
     76  CG        42.9550   11.0660   20.4380 C.3   359  LYS359      0.0038
     77  CD        41.6970   10.5720   19.7600 C.3   359  LYS359      0.0206
     78  CE        40.4610   11.0640   20.4890 C.3   359  LYS359      0.1093
     79  NZ        39.2210   10.5990   19.8160 N.3   359  LYS359     -0.1314
     80  N         44.6690   13.5700   18.9910 N.am  360  GLN360     -0.1963
     81  CA        44.2370   14.9680   18.9760 C.3   360  GLN360      0.1733
     82  C         42.8260   15.0960   19.5740 C.2   360  GLN360      0.2616
     83  O         41.9730   14.2180   19.3630 O.2   360  GLN360     -0.2715
     84  CB        44.2800   15.5200   17.5460 C.3   360  GLN360      0.0408
     85  CG        45.6370   15.3480   16.8590 C.3   360  GLN360      0.0908
     86  CD        45.6810   15.8850   15.4270 C.2   360  GLN360      0.2608
     87  OE1       44.7040   16.4460   14.9240 O.2   360  GLN360     -0.2717
     88  NE2       46.8300   15.7130   14.7650 N.am  360  GLN360     -0.0878
     89  N         42.5880   16.1680   20.3300 N.am  361  TYR361     -0.1974
     90  CA        41.2670   16.4270   20.9140 C.3   361  TYR361      0.1639
     91  C         40.7550   17.7980   20.4920 C.2   361  TYR361      0.2290
     92  O         41.5360   18.7490   20.4150 O.2   361  TYR361     -0.2864
     93  CB        41.3260   16.3790   22.4420 C.3   361  TYR361      0.0560
     94  CG        41.7260   15.0470   23.0270 C.ar  361  TYR361     -0.0198
     95  CD1       43.0600   14.7520   23.2790 C.ar  361  TYR361     -0.0009
     96  CD2       40.7660   14.0840   23.3450 C.ar  361  TYR361     -0.0009
     97  CE1       43.4340   13.5300   23.8240 C.ar  361  TYR361      0.0417
     98  CE2       41.1290   12.8590   23.8900 C.ar  361  TYR361      0.0417
     99  CZ        42.4650   12.5900   24.1280 C.ar  361  TYR361      0.1957
    100  OH        42.8440   11.3790   24.6660 O.3   361  TYR361     -0.2866
    101  N         42.3670    8.2150   27.5120 N.3   381  ASP381     -0.1225
    102  CA        42.0940    6.8190   27.8200 C.3   381  ASP381      0.1805
    103  C         43.2110    6.1030   28.5840 C.2   381  ASP381      0.2597
    104  O         43.0110    4.9900   29.0850 O.2   381  ASP381     -0.2718
    105  CB        41.7270    6.0620   26.5400 C.3   381  ASP381      0.1424
    106  CG        40.2770    6.2770   26.1240 C.2   381  ASP381      0.3668
    107  OD1       39.5990    7.1680   26.6850 O.co2 381  ASP381     -0.2456
    108  OD2       39.8090    5.5400   25.2330 O.co2 381  ASP381     -0.2456
    109  N         44.3730    6.7490   28.6770 N.am  382  PHE382     -0.1976
    110  CA        45.5500    6.1690   29.3310 C.3   382  PHE382      0.1639
    111  C         46.2740    7.2250   30.1590 C.2   382  PHE382      0.2290
    112  O         46.1050    8.4220   29.9300 O.2   382  PHE382     -0.2864
    113  CB        46.4970    5.5520   28.2910 C.3   382  PHE382      0.0560
    114  CG        47.0740    6.5510   27.3230 C.ar  382  PHE382     -0.0200
    115  CD1       46.3680    6.9300   26.1860 C.ar  382  PHE382     -0.0042
    116  CD2       48.3210    7.1220   27.5540 C.ar  382  PHE382     -0.0042
    117  CE1       46.8930    7.8600   25.2950 C.ar  382  PHE382     -0.0003
    118  CE2       48.8560    8.0490   26.6690 C.ar  382  PHE382     -0.0003
    119  CZ        48.1390    8.4210   25.5380 C.ar  382  PHE382     -0.0000
@<TRIPOS>BOND
     1    88    86   am
     2    87    86    2
     3    86    85    1
     4    85    84    1
     5    84    81    1
     6    81    80    1
     7    81    82    1
     8    80    73   am
     9    83    82    2
    10    82    89   am
    11    75    72    1
    12    75    76    1
    13    77    76    1
    14    77    78    1
    15    79    78    1
    16    72    73    1
    17    72    71    1
    18    73    74    2
    19    64    62   am
    20    89    90    1
    21    92    91    2
    22    91    90    1
    23    63    62    2
    24    68    67    2
    25    90    93    1
    26    62    61    1
    27    71    67   am
    28    67    66    1
    29    56    54   ar
    30    55    54   ar
    31    60    59    2
    32    93    94    1
    33    61    58    1
    34    54    53    1
    35    59    65   am
    36    59    58    1
    37    94    95   ar
    38    94    96   ar
    39    14    13    1
    40    66    65    1
    41    66    69    1
    42    95    97   ar
    43    96    98   ar
    44    58    57    1
    45    70    69    1
    46    13    10    1
    47    57    50   am
    48    97    99   ar
    49    98    99   ar
    50    53    52    1
    51    99   100    1
    52    52    49    1
    53    50    49    1
    54    50    51    2
    55    49    48    1
    56    10     9    1
    57    10    11    1
    58   108   106   ar
    59   117   119   ar
    60   117   115   ar
    61   119   118   ar
    62    15    11   am
    63    15    16    1
    64    11    12    2
    65    16    17    1
    66   106   105    1
    67   106   107   ar
    68   115   114   ar
    69   105   102    1
    70   118   116   ar
    71   114   116   ar
    72   114   113    1
    73   101   102    1
    74    17    19   am
    75    17    18    2
    76    26    24   am
    77   102   103    1
    78    19    20    1
    79   113   110    1
    80   103   109   am
    81   103   104    2
    82   109   110    1
    83    24    25    2
    84    24    23    1
    85   110   111    1
    86    20    23    1
    87    20    21    1
    88    30    29    2
    89   112   111    2
    90    21    22    2
    91    32    31    1
    92    27    28    1
    93    29    28    1
    94    37    36    2
    95    28    31    1
    96    31    33    1
    97    34    35    1
    98    46    44   ar
    99    46    47   ar
   100    44    41   ar
   101    36    35    1
   102    38    35    1
   103    38    39    1
   104     7     6    2
   105     8     6   am
   106    47    45   ar
   107    41    39   ar
   108    41    43   ar
   109     6     5    1
   110    39    40   ar
   111    45    43   ar
   112    43    42   ar
   113     5     2    1
   114    40    42   ar
   115     2     1    1
   116     2     3    1
   117     3     4    2
