@<TRIPOS>MOLECULE
tmp/2oxnA00.pdb
 154 144 0 0 0
SMALL
GASTEIGER

@<TRIPOS>ATOM
      1  N         -4.7150   -8.2060    1.0490 N.3    30  ILE30      -0.1245
      2  CA        -3.4020   -7.6860    1.4250 C.3    30  ILE30       0.1561
      3  C         -2.4800   -7.8660    0.2260 C.2    30  ILE30       0.2260
      4  O         -2.3310   -8.9800   -0.2780 O.2    30  ILE30      -0.2867
      5  CB        -2.8300   -8.3240    2.7320 C.3    30  ILE30       0.0252
      6  CG1       -1.4050   -7.8150    3.0010 C.3    30  ILE30       0.0019
      7  CG2       -2.9590   -9.8670    2.7320 C.3    30  ILE30       0.0019
      8  CD1       -0.9540   -8.0830    4.4580 C.3    30  ILE30       0.0001
      9  N          1.3120   -7.4850   -1.6930 N.3    32  PHE32      -0.1241
     10  CA         2.7260   -7.6700   -1.4480 C.3    32  PHE32       0.1605
     11  C          3.5290   -7.1430   -2.6420 C.2    32  PHE32       0.2264
     12  O          2.9690   -6.7460   -3.6450 O.2    32  PHE32      -0.2867
     13  CB         3.0420   -9.1550   -1.2030 C.3    32  PHE32       0.0534
     14  CG         2.4820   -9.6650    0.1030 C.ar   32  PHE32      -0.0203
     15  CD1        1.2790  -10.3460    0.1180 C.ar   32  PHE32      -0.0042
     16  CD2        3.0960   -9.3680    1.3170 C.ar   32  PHE32      -0.0042
     17  CE1        0.7360  -10.7850    1.3230 C.ar   32  PHE32      -0.0003
     18  CE2        2.5450   -9.7760    2.5290 C.ar   32  PHE32      -0.0003
     19  CZ         1.3590  -10.5020    2.5200 C.ar   32  PHE32      -0.0000
     20  N          1.6220   -3.6810    3.7520 N.3    62  ASP62      -0.1239
     21  CA         2.6480   -3.3090    4.7330 C.3    62  ASP62       0.1674
     22  C          3.5690   -2.2450    4.1290 C.2    62  ASP62       0.2266
     23  O          4.5210   -2.5690    3.4150 O.2    62  ASP62      -0.2867
     24  CB         3.4740   -4.5200    5.1160 C.3    62  ASP62       0.1410
     25  CG         2.6570   -5.5690    5.8010 C.2    62  ASP62       0.3668
     26  OD1        1.9980   -5.2090    6.7910 O.co2  62  ASP62      -0.2456
     27  OD2        2.6710   -6.7280    5.3340 O.co2  62  ASP62      -0.2456
     28  N          6.4510   -2.1820    0.4210 N.3    70  ARG70      -0.1245
     29  CA         6.1940   -3.1290   -0.6800 C.3    70  ARG70       0.1563
     30  C          6.2810   -2.4760   -2.0570 C.2    70  ARG70       0.2260
     31  O          6.7150   -3.1210   -3.0120 O.2    70  ARG70      -0.2867
     32  CB         4.8140   -3.7930   -0.5570 C.3    70  ARG70       0.0307
     33  CG         4.5170   -4.4890    0.7220 C.3    70  ARG70       0.0489
     34  CD         5.5640   -5.5050    1.1120 C.3    70  ARG70       0.2205
     35  NE         5.1150   -6.2270    2.2930 N.pl3  70  ARG70      -0.0865
     36  CZ         5.8900   -6.9230    3.1230 C.cat  70  ARG70       0.5346
     37  NH1        7.2000   -7.0580    2.9060 N.pl3  70  ARG70       0.1354
     38  NH2        5.3360   -7.5190    4.1780 N.pl3  70  ARG70       0.1354
     39  N         -0.6230   -1.1550    6.9030 N.3   114  PHE114     -0.1241
     40  CA        -0.6180   -1.7230    8.2430 C.3   114  PHE114      0.1605
     41  C          0.5210   -1.0660    9.0360 C.2   114  PHE114      0.2264
     42  O          1.6380   -1.5740    9.0960 O.2   114  PHE114     -0.2867
     43  CB        -0.4690   -3.2430    8.1820 C.3   114  PHE114      0.0534
     44  CG        -1.6480   -3.9400    7.5540 C.ar  114  PHE114     -0.0203
     45  CD1       -1.5870   -4.4560    6.2680 C.ar  114  PHE114     -0.0042
     46  CD2       -2.8260   -4.0830    8.2600 C.ar  114  PHE114     -0.0042
     47  CE1       -2.6690   -5.1180    5.7000 C.ar  114  PHE114     -0.0003
     48  CE2       -3.9360   -4.7410    7.6820 C.ar  114  PHE114     -0.0003
     49  CZ        -3.8550   -5.2420    6.3990 C.ar  114  PHE114     -0.0000
     50  N         13.6030   -9.0030   13.7980 N.3   126  ALA126     -0.1231
     51  CA        12.4760   -8.7760   12.8720 C.3   126  ALA126      0.1694
     52  C         11.9410   -7.3440   12.9290 C.2   126  ALA126      0.2591
     53  O         11.3770   -6.8710   11.9390 O.2   126  ALA126     -0.2718
     54  CB        11.3480   -9.7710   13.1140 C.3   126  ALA126      0.0304
     55  N         12.0950   -6.6700   14.0700 N.am  127  ILE127     -0.1980
     56  CA        11.6320   -5.2890   14.2430 C.3   127  ILE127      0.1595
     57  C         12.7710   -4.3180   13.8910 C.2   127  ILE127      0.2287
     58  O         12.7150   -3.6480   12.8550 O.2   127  ILE127     -0.2864
     59  CB        11.0780   -5.0330   15.6630 C.3   127  ILE127      0.0276
     60  CG1        9.9150   -5.9940   15.9960 C.3   127  ILE127      0.0022
     61  CG2       10.6390   -3.5770   15.8260 C.3   127  ILE127      0.0022
     62  CD1        8.7910   -6.0350   14.9740 C.3   127  ILE127      0.0001
     63  N         12.5050   -0.6650   12.2730 N.3   130  ARG130     -0.1245
     64  CA        11.0620   -0.4220   12.1210 C.3   130  ARG130      0.1563
     65  C         10.4360    0.3000   13.3100 C.2   130  ARG130      0.2260
     66  O          9.3120    0.8310   13.1960 O.2   130  ARG130     -0.2867
     67  CB        10.3250   -1.7340   11.8810 C.3   130  ARG130      0.0307
     68  CG        10.6860   -2.4420   10.5760 C.3   130  ARG130      0.0489
     69  CD        10.1950   -3.8820   10.5800 C.3   130  ARG130      0.2205
     70  NE         8.7340   -3.9870   10.5530 N.pl3 130  ARG130     -0.0865
     71  CZ         8.0630   -5.1070   10.8040 C.cat 130  ARG130      0.5346
     72  NH1        8.7080   -6.2080   11.1660 N.pl3 130  ARG130      0.1354
     73  NH2        6.7390   -5.1260   10.7200 N.pl3 130  ARG130      0.1354
     74  N          0.6950   -1.7250   15.7070 N.3   160  LYS160     -0.1231
     75  CA         1.2410   -3.0750   15.8550 C.3   160  LYS160      0.1693
     76  C          2.5940   -3.0620   16.5980 C.2   160  LYS160      0.2592
     77  O          3.2700   -2.0320   16.6190 O.2   160  LYS160     -0.2718
     78  CB         1.3480   -3.7370   14.4920 C.3   160  LYS160      0.0285
     79  CG         2.3220   -3.1180   13.5570 C.3   160  LYS160      0.0035
     80  CD         2.0100   -3.4980   12.0760 C.3   160  LYS160      0.0206
     81  CE         3.1800   -3.2070   11.2260 C.3   160  LYS160      0.1093
     82  NZ         3.0500   -3.8050    9.8350 N.3   160  LYS160     -0.1314
     83  N          3.0040   -4.1590   17.2360 N.am  161  HIS161     -0.1976
     84  CA         2.2760   -5.4370   17.3310 C.3   161  HIS161      0.1656
     85  C          1.9130   -5.6130   18.8140 C.2   161  HIS161      0.2291
     86  O          2.7640   -5.9590   19.6360 O.2   161  HIS161     -0.2864
     87  CB         3.1520   -6.5810   16.8520 C.3   161  HIS161      0.0771
     88  CG         3.6930   -6.3800   15.4770 C.ar  161  HIS161      0.0820
     89  ND1        4.8260   -5.6320   15.2320 N.ar  161  HIS161     -0.2267
     90  CD2        3.2350   -6.7830   14.2660 C.ar  161  HIS161      0.1154
     91  CE1        5.0550   -5.6070   13.9300 C.ar  161  HIS161      0.1986
     92  NE2        4.1080   -6.2990   13.3230 N.ar  161  HIS161     -0.2212
     93  N          6.2770   -5.9990   20.5050 N.3   165  HIS165     -0.1241
     94  CA         7.1730   -7.0180   19.9460 C.3   165  HIS165      0.1621
     95  C          8.6630   -6.6120   20.0000 C.2   165  HIS165      0.2264
     96  O          9.5190   -7.3240   19.4830 O.2   165  HIS165     -0.2867
     97  CB         6.7610   -7.2630   18.4890 C.3   165  HIS165      0.0745
     98  CG         7.1500   -8.5990   17.9270 C.ar  165  HIS165      0.0817
     99  ND1        8.4590   -9.0000   17.7640 N.ar  165  HIS165     -0.2268
    100  CD2        6.3880   -9.5790   17.3830 C.ar  165  HIS165      0.1154
    101  CE1        8.4830  -10.1950   17.1920 C.ar  165  HIS165      0.1986
    102  NE2        7.2380  -10.5730   16.9610 N.ar  165  HIS165     -0.2212
    103  N         -3.0470   -4.6970   15.2820 N.3   204  MET204     -0.1245
    104  CA        -2.5380   -6.0360   15.0090 C.3   204  MET204      0.1570
    105  C         -1.7730   -6.5090   16.2430 C.2   204  MET204      0.2261
    106  O         -0.8560   -5.8550   16.6790 O.2   204  MET204     -0.2867
    107  CB        -1.6050   -6.0160   13.8180 C.3   204  MET204      0.0387
    108  CG        -1.3400   -7.3820   13.2940 C.3   204  MET204      0.0595
    109  SD        -0.2170   -7.3080   11.9450 S.3   204  MET204     -0.1393
    110  CE        -0.9370   -6.0020   10.9400 C.3   204  MET204      0.0692
    111  N         -0.8680  -13.7000   10.8850 N.3   243  ASP243     -0.1239
    112  CA        -0.9700  -14.4800    9.6710 C.3   243  ASP243      0.1674
    113  C         -1.1930  -15.9570   10.0340 C.2   243  ASP243      0.2266
    114  O         -0.2680  -16.6540   10.4660 O.2   243  ASP243     -0.2867
    115  CB         0.3010  -14.2900    8.8300 C.3   243  ASP243      0.1410
    116  CG         0.2950  -15.1010    7.5550 C.2   243  ASP243      0.3668
    117  OD1       -0.7210  -15.7320    7.2230 O.co2 243  ASP243     -0.2456
    118  OD2        1.3470  -15.1060    6.8710 O.co2 243  ASP243     -0.2456
    119  N         -1.8010  -18.6850    8.2540 N.3   245  SER245     -0.1202
    120  CA        -1.0620  -19.6950    7.4940 C.3   245  SER245      0.2020
    121  C          0.3040  -20.0550    8.1560 C.2   245  SER245      0.2618
    122  O          0.8710  -21.1210    7.8680 O.2   245  SER245     -0.2717
    123  CB        -0.8530  -19.2010    6.0680 C.3   245  SER245      0.2103
    124  OG         0.1080  -18.2030    6.1000 O.3   245  SER245     -0.2182
    125  N          0.8070  -19.1500    9.0000 N.am  246  MET246     -0.1979
    126  CA         2.0410  -19.2910    9.7950 C.3   246  MET246      0.1605
    127  C          1.9250  -20.3250   10.9370 C.2   246  MET246      0.2287
    128  O          2.9160  -20.9140   11.3760 O.2   246  MET246     -0.2864
    129  CB         2.3640  -17.8960   10.3780 C.3   246  MET246      0.0413
    130  CG         3.4190  -17.7740   11.4730 C.3   246  MET246      0.0598
    131  SD         4.0210  -16.0590   11.7290 S.3   246  MET246     -0.1393
    132  CE         2.8770  -15.2730   12.8650 C.3   246  MET246      0.0692
    133  N         -6.1290  -13.0170    8.8940 N.3   271  LEU271     -0.1245
    134  CA        -5.2430  -12.9450    7.7320 C.3   271  LEU271      0.1561
    135  C         -4.7490  -14.3380    7.3850 C.2   271  LEU271      0.2260
    136  O         -4.2470  -15.0540    8.2640 O.2   271  LEU271     -0.2867
    137  CB        -4.0130  -12.0780    8.0380 C.3   271  LEU271      0.0270
    138  CG        -4.1240  -10.5650    7.9090 C.3   271  LEU271      0.0019
    139  CD1       -5.1420   -9.9760    8.8870 C.3   271  LEU271      0.0001
    140  CD2       -2.7210   -9.9040    8.1010 C.3   271  LEU271      0.0001
    141  N         -2.1120  -15.4130    4.5780 N.3   273  CYS273     -0.1221
    142  CA        -1.2060  -14.9110    3.5450 C.3   273  CYS273      0.1808
    143  C         -0.4130  -16.0590    2.9560 C.2   273  CYS273      0.2601
    144  O         -0.1100  -17.0210    3.6580 O.2   273  CYS273     -0.2717
    145  CB        -0.2130  -13.9160    4.1300 C.3   273  CYS273      0.0970
    146  SG        -1.0070  -12.5330    4.9650 S.3   273  CYS273     -0.0800
    147  N         -0.0790  -15.9280    1.6800 N.am  274  ASN274     -0.1974
    148  CA         0.8340  -16.8450    0.9940 C.3   274  ASN274      0.1688
    149  C          0.4300  -18.3120    1.0750 C.2   274  ASN274      0.2292
    150  O          1.3010  -19.2120    1.1110 O.2   274  ASN274     -0.2864
    151  CB         2.2500  -16.6820    1.5270 C.3   274  ASN274      0.1181
    152  CG         2.7650  -15.2490    1.4010 C.2   274  ASN274      0.2629
    153  OD1        2.3020  -14.4820    0.5610 O.2   274  ASN274     -0.2716
    154  ND2        3.7020  -14.8820    2.2580 N.am  274  ASN274     -0.0877
@<TRIPOS>BOND
     1    12    11    2
     2    31    30    2
     3    11    10    1
     4    30    29    1
     5     9    10    1
     6    10    13    1
     7    13    14    1
     8    29    32    1
     9    29    28    1
    10    32    33    1
    11     4     3    2
    12    14    15   ar
    13    14    16   ar
    14    15    17   ar
    15     3     2    1
    16   153   152    2
    17    33    34    1
    18   148   149    1
    19   148   151    1
    20   148   147    1
    21     1     2    1
    22   149   150    2
    23    34    35    1
    24    16    18   ar
    25    17    19   ar
    26   152   151    1
    27   152   154   am
    28     2     5    1
    29   147   143   am
    30    35    36    2
    31    19    18   ar
    32     5     7    1
    33     5     6    1
    34    37    36    1
    35   143   142    1
    36   143   144    2
    37     6     8    1
    38    36    38    1
    39    23    22    2
    40   142   145    1
    41   142   141    1
    42    20    21    1
    43    22    21    1
    44   145   146    1
    45    21    24    1
    46    24    25    1
    47    27    25   ar
    48    47    45   ar
    49    47    49   ar
    50    25    26   ar
    51   123   124    1
    52   123   120    1
    53    45    44   ar
    54    49    48   ar
    55   118   116   ar
    56    39    40    1
    57   117   116   ar
    58   135   134    1
    59   135   136    2
    60   120   121    1
    61   120   119    1
    62    44    43    1
    63    44    46   ar
    64   116   115    1
    65    48    46   ar
    66   134   137    1
    67   134   133    1
    68   122   121    2
    69   138   137    1
    70   138   140    1
    71   138   139    1
    72   121   125   am
    73    43    40    1
    74    40    41    1
    75   115   112    1
    76   125   126    1
    77    41    42    2
    78   112   113    1
    79   112   111    1
    80   126   129    1
    81   126   127    1
    82    82    81    1
    83   113   114    2
    84   129   130    1
    85    70    69    1
    86    70    71    2
    87    68    69    1
    88    68    67    1
    89    73    71    1
    90    71    72    1
    91   127   128    2
    92   110   109    1
    93    81    80    1
    94   130   131    1
    95   131   132    1
    96    67    64    1
    97    53    52    2
    98   109   108    1
    99    80    79    1
   100    64    63    1
   101    64    65    1
   102    58    57    2
   103    51    52    1
   104    51    54    1
   105    51    50    1
   106    52    55   am
   107    66    65    2
   108   108   107    1
   109    92    91   ar
   110    92    90   ar
   111    79    78    1
   112   107   104    1
   113    57    56    1
   114    91    89   ar
   115    55    56    1
   116    56    59    1
   117    90    88   ar
   118    78    75    1
   119    62    60    1
   120   104   103    1
   121   104   105    1
   122    89    88   ar
   123    88    87    1
   124    59    61    1
   125    59    60    1
   126    74    75    1
   127    75    76    1
   128   105   106    2
   129    76    77    2
   130    76    83   am
   131    87    84    1
   132   102   101   ar
   133   102   100   ar
   134   101    99   ar
   135    83    84    1
   136    84    85    1
   137   100    98   ar
   138    99    98   ar
   139    98    97    1
   140    97    94    1
   141    85    86    2
   142    96    95    2
   143    94    95    1
   144    94    93    1
