@<TRIPOS>MOLECULE
tmp/2oxtA00.pdb
 165 159 0 0 0
SMALL
GASTEIGER

@<TRIPOS>ATOM
      1  N        -25.9960   -8.0610   -1.7600 N.3    57  SER57      -0.1217
      2  CA       -25.2230   -8.0610   -0.5220 C.3    57  SER57       0.1889
      3  C        -24.0240   -7.1120   -0.6560 C.2    57  SER57       0.2288
      4  O        -23.8000   -6.5390   -1.7340 O.2    57  SER57      -0.2866
      5  CB       -24.7370   -9.4700   -0.2200 C.3    57  SER57       0.2089
      6  OG       -23.7210   -9.8380   -1.1280 O.3    57  SER57      -0.2183
      7  N        -20.9840   -8.1290   -0.6730 N.3    59  GLY59      -0.1225
      8  CA       -19.8860   -8.8730   -1.2810 C.3    59  GLY59       0.1811
      9  C        -19.5740   -8.3740   -2.6830 C.2    59  GLY59       0.2280
     10  O        -18.4180   -8.3870   -3.1170 O.2    59  GLY59      -0.2866
     11  N        -18.6240  -20.6420   -7.7910 N.3    80  ASP80      -0.1239
     12  CA       -18.7220  -19.8610   -6.5540 C.3    80  ASP80       0.1674
     13  C        -19.0220  -20.7110   -5.3020 C.2    80  ASP80       0.2266
     14  O        -20.1790  -20.8600   -4.8960 O.2    80  ASP80      -0.2867
     15  CB       -19.7450  -18.7250   -6.6960 C.3    80  ASP80       0.1410
     16  CG       -19.6830  -17.7270   -5.5270 C.2    80  ASP80       0.3668
     17  OD1      -18.7330  -17.8160   -4.7040 O.co2  80  ASP80      -0.2456
     18  OD2      -20.5790  -16.8510   -5.4200 O.co2  80  ASP80      -0.2456
     19  N        -19.6260  -21.4440   -1.6760 N.3    82  GLY82      -0.1210
     20  CA       -20.1330  -20.6860   -0.5160 C.3    82  GLY82       0.1956
     21  C        -20.6080  -19.3130   -0.9360 C.2    82  GLY82       0.2612
     22  O        -20.0040  -18.3120   -0.5600 O.2    82  GLY82      -0.2717
     23  N        -21.6770  -19.2670   -1.7310 N.am   83  CYS83      -0.1956
     24  CA       -22.1400  -18.0240   -2.3570 C.3    83  CYS83       0.1843
     25  C        -23.1420  -17.1810   -1.5430 C.2    83  CYS83       0.2626
     26  O        -23.5000  -16.0720   -1.9570 O.2    83  CYS83      -0.2714
     27  CB       -22.7170  -18.3180   -3.7440 C.3    83  CYS83       0.0997
     28  SG       -24.3140  -19.1750   -3.7420 S.3    83  CYS83      -0.0797
     29  N        -23.5920  -17.6990   -0.3980 N.am   84  GLY84      -0.1940
     30  CA       -24.6180  -17.0250    0.4120 C.3    84  GLY84       0.2014
     31  C        -25.7510  -16.4560   -0.4390 C.2    84  GLY84       0.2638
     32  O        -26.4590  -17.2040   -1.1290 O.2    84  GLY84      -0.2714
     33  N        -25.8970  -15.1280   -0.4270 N.am   85  ARG85      -0.1977
     34  CA       -26.9810  -14.4640   -1.1590 C.3    85  ARG85       0.1597
     35  C        -26.7250  -14.3220   -2.6580 C.2    85  ARG85       0.2287
     36  O        -27.6500  -14.0490   -3.4270 O.2    85  ARG85      -0.2864
     37  CB       -27.3100  -13.1140   -0.5230 C.3    85  ARG85       0.0334
     38  CG       -28.0520  -13.2690    0.7940 C.3    85  ARG85       0.0492
     39  CD       -28.6630  -11.9760    1.2630 C.3    85  ARG85       0.2205
     40  NE       -27.6580  -11.0780    1.8200 N.pl3  85  ARG85      -0.0865
     41  CZ       -27.9380  -10.0010    2.5480 C.cat  85  ARG85       0.5346
     42  NH1      -29.2000   -9.6780    2.8130 N.pl3  85  ARG85       0.1354
     43  NH2      -26.9480   -9.2480    3.0130 N.pl3  85  ARG85       0.1354
     44  N        -24.0350  -12.3410   -4.0790 N.3    87  GLY87      -0.1210
     45  CA       -23.3960  -11.0570   -4.4030 C.3    87  GLY87       0.1956
     46  C        -22.1970  -11.1420   -5.3350 C.2    87  GLY87       0.2611
     47  O        -22.0440  -10.3190   -6.2430 O.2    87  GLY87      -0.2717
     48  N        -21.3440  -12.1340   -5.1060 N.am   88  TRP88      -0.1976
     49  CA       -20.2240  -12.4060   -5.9910 C.3    88  TRP88       0.1640
     50  C        -20.6900  -13.0410   -7.3050 C.2    88  TRP88       0.2290
     51  O        -20.2600  -12.6220   -8.3890 O.2    88  TRP88      -0.2864
     52  CB       -19.2210  -13.3160   -5.3030 C.3    88  TRP88       0.0576
     53  CG       -18.3300  -12.6220   -4.3260 C.ar   88  TRP88       0.0006
     54  CD1      -18.5960  -11.4690   -3.6300 C.ar   88  TRP88       0.0946
     55  CD2      -17.0390  -13.0610   -3.8930 C.ar   88  TRP88       0.0152
     56  NE1      -17.5370  -11.1520   -2.8140 N.ar   88  TRP88      -0.2442
     57  CE2      -16.5650  -12.1090   -2.9580 C.ar   88  TRP88       0.0810
     58  CE3      -16.2250  -14.1540   -4.2210 C.ar   88  TRP88       0.0012
     59  CZ2      -15.3110  -12.2220   -2.3460 C.ar   88  TRP88       0.0191
     60  CZ3      -14.9770  -14.2700   -3.6070 C.ar   88  TRP88       0.0001
     61  CH2      -14.5330  -13.3070   -2.6860 C.ar   88  TRP88       0.0015
     62  N        -23.9630  -23.2420   -2.0490 N.3   105  THR105     -0.1203
     63  CA       -24.0450  -22.7890   -0.6640 C.3   105  THR105      0.1994
     64  C        -25.0150  -23.6920    0.1060 C.2   105  THR105      0.2617
     65  O        -25.6950  -24.5130   -0.4900 O.2   105  THR105     -0.2717
     66  CB       -24.4770  -21.2960   -0.5850 C.3   105  THR105      0.1784
     67  OG1      -24.3610  -20.8220    0.7680 O.3   105  THR105     -0.2211
     68  CG2      -25.9060  -21.1020   -1.0840 C.3   105  THR105      0.0376
     69  N        -25.0670  -23.5430    1.4280 N.am  106  LEU106     -0.1979
     70  CA       -26.0080  -24.2910    2.2690 C.3   106  LEU106      0.1596
     71  C        -27.3920  -23.6580    2.1750 C.2   106  LEU106      0.2287
     72  O        -28.3210  -24.2490    1.6240 O.2   106  LEU106     -0.2864
     73  CB       -25.5390  -24.3130    3.7340 C.3   106  LEU106      0.0297
     74  CG       -24.2370  -25.0230    4.1350 C.3   106  LEU106      0.0022
     75  CD1      -23.7440  -24.5330    5.4810 C.3   106  LEU106      0.0001
     76  CD2      -24.4010  -26.5420    4.1500 C.3   106  LEU106      0.0001
     77  N        -28.6690  -19.6470    7.4950 N.3   111  HIS111     -0.1226
     78  CA       -27.5880  -19.3630    6.5430 C.3   111  HIS111      0.1752
     79  C        -28.1100  -18.6910    5.2820 C.2   111  HIS111      0.2595
     80  O        -29.1930  -19.0110    4.7950 O.2   111  HIS111     -0.2718
     81  CB       -26.8470  -20.6520    6.1850 C.3   111  HIS111      0.0759
     82  CG       -25.7880  -21.0230    7.1690 C.ar  111  HIS111      0.0818
     83  ND1      -24.4960  -21.3100    6.7940 N.ar  111  HIS111     -0.2268
     84  CD2      -25.8190  -21.1200    8.5170 C.ar  111  HIS111      0.1154
     85  CE1      -23.7770  -21.5840    7.8690 C.ar  111  HIS111      0.1986
     86  NE2      -24.5560  -21.4730    8.9280 N.ar  111  HIS111     -0.2212
     87  N        -27.3230  -17.7630    4.7510 N.am  112  GLU112     -0.1979
     88  CA       -27.7840  -16.9040    3.6600 C.3   112  GLU112      0.1602
     89  C        -28.3170  -17.7500    2.5160 C.2   112  GLU112      0.2287
     90  O        -27.6610  -18.6960    2.0710 O.2   112  GLU112     -0.2864
     91  CB       -26.6770  -15.9490    3.1790 C.3   112  GLU112      0.0415
     92  CG       -25.7880  -15.3610    4.2950 C.3   112  GLU112      0.1163
     93  CD       -26.3820  -14.1340    4.9890 C.2   112  GLU112      0.3649
     94  OE1      -27.5530  -13.7640    4.7210 O.co2 112  GLU112     -0.2457
     95  OE2      -25.6540  -13.5370    5.8160 O.co2 112  GLU112     -0.2457
     96  N        -25.8650  -27.5810   -0.0390 N.3   131  VAL131     -0.1231
     97  CA       -24.6160  -28.0810   -0.6030 C.3   131  VAL131      0.1692
     98  C        -23.4820  -27.8040    0.3700 C.2   131  VAL131      0.2592
     99  O        -23.3500  -26.6890    0.8780 O.2   131  VAL131     -0.2718
    100  CB       -24.2800  -27.4060   -1.9480 C.3   131  VAL131      0.0266
    101  CG1      -22.9870  -27.9750   -2.5230 C.3   131  VAL131      0.0020
    102  CG2      -25.4140  -27.5910   -2.9340 C.3   131  VAL131      0.0020
    103  N        -22.6760  -28.8280    0.6310 N.am  132  ASP132     -0.1960
    104  CA       -21.4970  -28.6970    1.4740 C.3   132  ASP132      0.1840
    105  C        -20.3000  -28.6790    0.5530 C.2   132  ASP132      0.2622
    106  O        -19.9720  -29.6980   -0.0630 O.2   132  ASP132     -0.2715
    107  CB       -21.4090  -29.8640    2.4630 C.3   132  ASP132      0.1450
    108  CG       -20.1580  -29.8220    3.3340 C.2   132  ASP132      0.3671
    109  OD1      -19.5650  -28.7300    3.5270 O.co2 132  ASP132     -0.2456
    110  OD2      -19.7760  -30.9000    3.8480 O.co2 132  ASP132     -0.2456
    111  N        -19.6540  -27.5190    0.4560 N.am  133  ILE133     -0.1963
    112  CA       -18.5720  -27.3140   -0.5140 C.3   133  ILE133      0.1727
    113  C        -17.3910  -28.2720   -0.3360 C.2   133  ILE133      0.2616
    114  O        -16.7460  -28.6610   -1.3150 O.2   133  ILE133     -0.2715
    115  CB       -18.0950  -25.8450   -0.5620 C.3   133  ILE133      0.0290
    116  CG1      -17.7930  -25.3210    0.8540 C.3   133  ILE133      0.0022
    117  CG2      -19.1310  -24.9890   -1.3200 C.3   133  ILE133      0.0023
    118  CD1      -17.0580  -23.9960    0.8900 C.3   133  ILE133      0.0001
    119  N        -17.1470  -28.6630    0.9110 N.am  134  HIS134     -0.1973
    120  CA       -16.0690  -29.5770    1.2770 C.3   134  HIS134      0.1656
    121  C        -16.2670  -30.9920    0.7300 C.2   134  HIS134      0.2291
    122  O        -15.3180  -31.7700    0.6520 O.2   134  HIS134     -0.2864
    123  CB       -15.9410  -29.6320    2.7970 C.3   134  HIS134      0.0771
    124  CG       -15.5500  -28.3270    3.4180 C.ar  134  HIS134      0.0820
    125  ND1      -16.4730  -27.4180    3.8870 N.ar  134  HIS134     -0.2267
    126  CD2      -14.3310  -27.7780    3.6470 C.ar  134  HIS134      0.1154
    127  CE1      -15.8410  -26.3680    4.3810 C.ar  134  HIS134      0.1986
    128  NE2      -14.5400  -26.5620    4.2480 N.ar  134  HIS134     -0.2212
    129  N        -15.7910  -17.2520   -0.7260 N.3   147  ASP147     -0.1225
    130  CA       -15.8660  -16.2290    0.3110 C.3   147  ASP147      0.1805
    131  C        -16.3250  -16.8030    1.6740 C.2   147  ASP147      0.2598
    132  O        -17.1710  -16.2230    2.3480 O.2   147  ASP147     -0.2718
    133  CB       -16.7970  -15.1080   -0.1680 C.3   147  ASP147      0.1424
    134  CG       -16.5960  -13.8020    0.5820 C.2   147  ASP147      0.3668
    135  OD1      -17.3110  -12.8240    0.2710 O.co2 147  ASP147     -0.2456
    136  OD2      -15.7340  -13.7370    1.4880 O.co2 147  ASP147     -0.2456
    137  N        -15.7730  -17.9430    2.0830 N.am  148  VAL148     -0.1966
    138  CA       -16.2390  -18.5960    3.3050 C.3   148  VAL148      0.1727
    139  C        -15.3180  -18.2630    4.4750 C.2   148  VAL148      0.2617
    140  O        -14.1270  -18.0340    4.2860 O.2   148  VAL148     -0.2715
    141  CB       -16.4020  -20.1430    3.1350 C.3   148  VAL148      0.0290
    142  CG1      -16.7030  -20.8180    4.4590 C.3   148  VAL148      0.0023
    143  CG2      -17.5150  -20.4560    2.1700 C.3   148  VAL148      0.0023
    144  N        -15.8800  -18.2230    5.6810 N.am  149  GLY149     -0.1940
    145  CA       -15.0870  -18.0120    6.8800 C.3   149  GLY149      0.2014
    146  C        -15.9470  -17.4350    7.9790 C.2   149  GLY149      0.2638
    147  O        -16.1620  -16.2200    8.0380 O.2   149  GLY149     -0.2714
    148  N        -16.4570  -18.3220    8.8310 N.am  150  GLU150     -0.1977
    149  CA       -17.2480  -17.9400    9.9990 C.3   150  GLU150      0.1602
    150  C        -16.3020  -17.3920   11.0700 C.2   150  GLU150      0.2287
    151  O        -15.4010  -18.0970   11.5410 O.2   150  GLU150     -0.2864
    152  CB       -18.0250  -19.1650   10.5110 C.3   150  GLU150      0.0415
    153  CG       -19.0240  -18.9250   11.6480 C.3   150  GLU150      0.1163
    154  CD       -19.7570  -20.2100   12.0810 C.2   150  GLU150      0.3649
    155  OE1      -19.8270  -20.4900   13.3090 O.co2 150  GLU150     -0.2457
    156  OE2      -20.2610  -20.9450   11.1970 O.co2 150  GLU150     -0.2457
    157  N        -11.1040  -16.2400    0.4980 N.3   184  LYS184     -0.1245
    158  CA       -11.1050  -15.6170    1.8160 C.3   184  LYS184      0.1561
    159  C        -10.1240  -16.3110    2.7550 C.2   184  LYS184      0.2260
    160  O        -10.1210  -17.5360    2.8700 O.2   184  LYS184     -0.2867
    161  CB       -12.5120  -15.6380    2.4170 C.3   184  LYS184      0.0271
    162  CG       -12.6830  -14.7340    3.6280 C.3   184  LYS184      0.0035
    163  CD       -14.1520  -14.4740    3.9200 C.3   184  LYS184      0.0206
    164  CE       -14.4540  -14.6200    5.4030 C.3   184  LYS184      0.1093
    165  NZ       -15.9090  -14.4730    5.6900 N.3   184  LYS184     -0.1314
@<TRIPOS>BOND
     1    51    50    2
     2    11    12    1
     3    50    49    1
     4    15    12    1
     5    15    16    1
     6    12    13    1
     7    47    46    2
     8    49    52    1
     9    49    48    1
    10    16    18   ar
    11    16    17   ar
    12    46    48   am
    13    46    45    1
    14    52    53    1
    15    13    14    2
    16    45    44    1
    17    53    55   ar
    18    53    54   ar
    19    58    55   ar
    20    58    60   ar
    21    55    57   ar
    22    27    28    1
    23    27    24    1
    24    54    56   ar
    25    60    61   ar
    26    36    35    2
    27    10     9    2
    28    57    56   ar
    29    57    59   ar
    30   102   100    1
    31    61    59   ar
    32     9     8    1
    33    35    34    1
    34   101   100    1
    35    24    23    1
    36    24    25    1
    37    62    63    1
    38    26    25    2
    39   100    97    1
    40     1     2    1
    41     4     3    2
    42    23    21   am
    43    19    20    1
    44    25    29   am
    45   117   115    1
    46   114   113    2
    47     8     7    1
    48    34    37    1
    49    34    33    1
    50    32    31    2
    51     6     5    1
    52    68    66    1
    53    21    22    2
    54    21    20    1
    55   129   130    1
    56    63    66    1
    57    63    64    1
    58     3     2    1
    59    97    96    1
    60    97    98    1
    61    66    67    1
    62   115   112    1
    63   115   116    1
    64    37    38    1
    65     2     5    1
    66   112   113    1
    67   112   111    1
    68    65    64    2
    69    31    33   am
    70    31    30    1
    71    29    30    1
    72   113   119   am
    73   133   130    1
    74   133   134    1
    75   106   105    2
    76    64    69   am
    77   135   134   ar
    78   130   131    1
    79    98   103   am
    80    98    99    2
    81   111   105   am
    82   157   158    1
    83   105   104    1
    84   134   136   ar
    85   103   104    1
    86   122   121    2
    87   121   120    1
    88    38    39    1
    89   116   118    1
    90   119   120    1
    91    39    40    1
    92   120   123    1
    93    69    70    1
    94   104   107    1
    95    72    71    2
    96   131   137   am
    97   131   132    2
    98   158   161    1
    99   158   159    1
   100    40    41    2
   101    90    89    2
   102   137   138    1
   103   143   141    1
   104    71    70    1
   105    70    73    1
   106   161   162    1
   107   107   108    1
   108    89    88    1
   109    41    42    1
   110    41    43    1
   111   159   160    2
   112   123   124    1
   113   141   138    1
   114   141   142    1
   115    91    88    1
   116    91    92    1
   117   138   139    1
   118   108   109   ar
   119   108   110   ar
   120   124   126   ar
   121   124   125   ar
   122   162   163    1
   123   126   128   ar
   124    88    87    1
   125    73    74    1
   126   125   127   ar
   127   163   164    1
   128    74    76    1
   129    74    75    1
   130   128   127   ar
   131   140   139    2
   132    92    93    1
   133   139   144   am
   134    94    93   ar
   135    87    79   am
   136    80    79    2
   137    93    95   ar
   138    79    78    1
   139   164   165    1
   140   144   145    1
   141    81    78    1
   142    81    82    1
   143    78    77    1
   144    83    82   ar
   145    83    85   ar
   146   145   146    1
   147    82    84   ar
   148    85    86   ar
   149   146   147    2
   150   146   148   am
   151    84    86   ar
   152   148   149    1
   153   149   152    1
   154   149   150    1
   155   152   153    1
   156   150   151    2
   157   156   154   ar
   158   153   154    1
   159   154   155   ar
