@<TRIPOS>MOLECULE
tmp/2oxyA00.pdb
 97 88 0 0 0
SMALL
GASTEIGER

@<TRIPOS>ATOM
      1  N        -18.7000    8.9390    2.1630 N.3    39  VAL39      -0.1245
      2  CA       -17.3370    9.4010    1.8540 C.3    39  VAL39       0.1561
      3  C        -16.9250    8.6480    0.5860 C.2    39  VAL39       0.2260
      4  O        -15.7860    8.7430    0.1060 O.2    39  VAL39      -0.2867
      5  CB       -16.3720    9.1300    3.0320 C.3    39  VAL39       0.0252
      6  CG1      -15.0860    9.9410    2.8590 C.3    39  VAL39       0.0019
      7  CG2      -17.0490    9.5030    4.3620 C.3    39  VAL39       0.0019
      8  N        -18.2260    3.5050    1.3840 N.3    47  VAL47      -0.1245
      9  CA       -17.6470    3.8890    2.6560 C.3    47  VAL47       0.1561
     10  C        -18.3590    5.1500    3.1340 C.2    47  VAL47       0.2260
     11  O        -18.6470    6.0310    2.3130 O.2    47  VAL47      -0.2867
     12  CB       -16.1110    4.1490    2.5200 C.3    47  VAL47       0.0252
     13  CG1      -15.4990    4.3170    3.8930 C.3    47  VAL47       0.0019
     14  CG2      -15.4180    2.9850    1.7390 C.3    47  VAL47       0.0019
     15  N        -15.5830    4.7800   10.8510 N.3    60  ILE60      -0.1245
     16  CA       -15.7630    4.6600    9.4110 C.3    60  ILE60       0.1561
     17  C        -16.3820    3.2890    9.1560 C.2    60  ILE60       0.2260
     18  O        -15.9490    2.2970    9.7280 O.2    60  ILE60      -0.2867
     19  CB       -14.4420    4.8560    8.6030 C.3    60  ILE60       0.0252
     20  CG1      -13.9790    6.3220    8.6770 C.3    60  ILE60       0.0019
     21  CG2      -14.5820    4.3320    7.1370 C.3    60  ILE60       0.0019
     22  CD1      -14.6980    7.3220    7.7940 C.3    60  ILE60       0.0001
     23  N        -17.5550    0.4970    6.2910 N.3    62  LYS62      -0.1245
     24  CA       -17.4230    0.0480    4.9190 C.3    62  LYS62       0.1561
     25  C        -18.4280   -1.0730    4.6930 C.2    62  LYS62       0.2260
     26  O        -18.3060   -2.1480    5.3180 O.2    62  LYS62      -0.2867
     27  CB       -16.0120   -0.4720    4.6880 C.3    62  LYS62       0.0271
     28  CG       -15.7390   -0.9410    3.2440 C.3    62  LYS62       0.0035
     29  CD       -14.4030   -1.6860    3.2340 C.3    62  LYS62       0.0206
     30  CE       -13.7580   -1.6910    1.8550 C.3    62  LYS62       0.1093
     31  NZ       -12.3050   -2.0500    2.0510 N.3    62  LYS62      -0.1314
     32  N         -4.5800    0.4970    9.8100 N.3    89  VAL89      -0.1245
     33  CA        -5.9410    0.8090   10.2080 C.3    89  VAL89       0.1561
     34  C         -6.5490   -0.3070   11.1120 C.2    89  VAL89       0.2260
     35  O         -6.3750   -1.5270   10.8940 O.2    89  VAL89      -0.2867
     36  CB        -6.8520    1.1480    9.0090 C.3    89  VAL89       0.0252
     37  CG1       -7.2330   -0.1370    8.2240 C.3    89  VAL89       0.0019
     38  CG2       -8.1070    1.9060    9.4870 C.3    89  VAL89       0.0019
     39  N        -14.3060    0.6700   11.2220 N.3   107  PHE107     -0.1227
     40  CA       -12.8960    1.0790   11.4170 C.3   107  PHE107      0.1736
     41  C        -12.7930    2.2680   12.3420 C.2   107  PHE107      0.2595
     42  O        -13.7150    3.1000   12.3950 O.2   107  PHE107     -0.2718
     43  CB       -12.2860    1.4520   10.0680 C.3   107  PHE107      0.0547
     44  CG       -12.2200    0.3240    9.0940 C.ar  107  PHE107     -0.0202
     45  CD1      -11.1760   -0.5940    9.1440 C.ar  107  PHE107     -0.0042
     46  CD2      -13.1610    0.2130    8.0810 C.ar  107  PHE107     -0.0042
     47  CE1      -11.1150   -1.6450    8.2240 C.ar  107  PHE107     -0.0003
     48  CE2      -13.1110   -0.8330    7.1820 C.ar  107  PHE107     -0.0003
     49  CZ       -12.0680   -1.7590    7.2650 C.ar  107  PHE107     -0.0000
     50  N        -11.6610    2.3860   13.0440 N.am  108  GLU108     -0.1979
     51  CA       -11.2750    3.6260   13.6910 C.3   108  GLU108      0.1602
     52  C        -11.3350    4.8280   12.6920 C.2   108  GLU108      0.2287
     53  O        -10.9530    4.7210   11.5130 O.2   108  GLU108     -0.2864
     54  CB        -9.8600    3.5180   14.3410 C.3   108  GLU108      0.0415
     55  CG        -8.7590    3.1550   13.3000 C.3   108  GLU108      0.1163
     56  CD        -7.2820    3.4170   13.7320 C.2   108  GLU108      0.3649
     57  OE1       -7.0270    4.2910   14.5870 O.co2 108  GLU108     -0.2457
     58  OE2       -6.3870    2.7220   13.1980 O.co2 108  GLU108     -0.2457
     59  N        -10.1560    8.3200   11.1090 N.3   110  VAL110     -0.1245
     60  CA        -8.9910    9.2060   10.9440 C.3   110  VAL110      0.1561
     61  C         -9.4590   10.4990   10.2390 C.2   110  VAL110      0.2260
     62  O        -10.1250   10.4530    9.1710 O.2   110  VAL110     -0.2867
     63  CB        -7.8720    8.5280   10.1010 C.3   110  VAL110      0.0252
     64  CG1       -6.7170    9.4690    9.8660 C.3   110  VAL110      0.0019
     65  CG2       -7.4520    7.1870   10.7280 C.3   110  VAL110      0.0019
     66  N         -8.6630   12.5940    7.9120 N.3   112  ASN112     -0.1240
     67  CA        -7.7920   12.7010    6.7390 C.3   112  ASN112      0.1653
     68  C         -7.9240   14.0440    5.9910 C.2   112  ASN112      0.2266
     69  O         -9.0240   14.6110    5.8740 O.2   112  ASN112     -0.2867
     70  CB        -8.1040   11.5060    5.7780 C.3   112  ASN112      0.1155
     71  CG        -7.1890   11.4730    4.5620 C.2   112  ASN112      0.2627
     72  OD1       -5.9600   11.4530    4.7060 O.2   112  ASN112     -0.2716
     73  ND2       -7.7890   11.4430    3.3480 N.am  112  ASN112     -0.0877
     74  N         -4.1770    7.2880    4.8790 N.3   157  MET157     -0.1245
     75  CA        -4.9140    8.3410    5.6080 C.3   157  MET157      0.1570
     76  C         -3.9350    9.0730    6.5180 C.2   157  MET157      0.2261
     77  O         -3.1660    8.4400    7.2260 O.2   157  MET157     -0.2867
     78  CB        -6.0940    7.7470    6.4300 C.3   157  MET157      0.0387
     79  CG        -7.1200    6.9500    5.5550 C.3   157  MET157      0.0595
     80  SD        -8.0080    8.0950    4.3860 S.3   157  MET157     -0.1393
     81  CE        -7.1220    7.8930    2.8730 C.3   157  MET157      0.0692
     82  N         -4.7030    1.8940    4.7100 N.3   168  ILE168     -0.1231
     83  CA        -6.0770    1.4260    4.6750 C.3   168  ILE168      0.1692
     84  C         -6.2950    0.5940    3.4110 C.2   168  ILE168      0.2592
     85  O         -5.3950    0.4680    2.5710 O.2   168  ILE168     -0.2718
     86  CB        -7.1000    2.6430    4.6900 C.3   168  ILE168      0.0266
     87  CG1       -6.9180    3.5130    3.4520 C.3   168  ILE168      0.0019
     88  CG2       -6.9900    3.4840    5.9810 C.3   168  ILE168      0.0020
     89  CD1       -8.1450    4.3630    3.0370 C.3   168  ILE168      0.0001
     90  N         -7.5360    0.1530    3.2400 N.am  169  ASP169     -0.1974
     91  CA        -7.9910   -0.6310    2.0760 C.3   169  ASP169      0.1709
     92  C         -7.1760   -1.8730    1.7740 C.2   169  ASP169      0.2293
     93  O         -6.3580   -1.9050    0.8340 O.2   169  ASP169     -0.2864
     94  CB        -8.2400    0.1990    0.8160 C.3   169  ASP169      0.1436
     95  CG        -9.2820   -0.4500   -0.0920 C.2   169  ASP169      0.3671
     96  OD1       -9.5850   -1.6920    0.0320 O.co2 169  ASP169     -0.2456
     97  OD2       -9.8040    0.2920   -0.9410 O.co2 169  ASP169     -0.2456
@<TRIPOS>BOND
     1    97    95   ar
     2    95    96   ar
     3    95    94    1
     4     4     3    2
     5     3     2    1
     6    94    91    1
     7    93    92    2
     8     8     9    1
     9    14    12    1
    10    92    91    1
    11     2     1    1
    12     2     5    1
    13    30    31    1
    14    30    29    1
    15    91    90    1
    16    11    10    2
    17    12     9    1
    18    12    13    1
    19    85    84    2
    20     9    10    1
    21     6     5    1
    22    81    80    1
    23     5     7    1
    24    89    87    1
    25    29    28    1
    26    90    84   am
    27    28    27    1
    28    73    71   am
    29    84    83    1
    30    87    86    1
    31    80    79    1
    32    71    72    2
    33    71    70    1
    34    83    86    1
    35    83    82    1
    36    27    24    1
    37    86    88    1
    38    25    24    1
    39    25    26    2
    40    74    75    1
    41    24    23    1
    42    79    78    1
    43    75    78    1
    44    75    76    1
    45    70    67    1
    46    69    68    2
    47    68    67    1
    48    76    77    2
    49    67    66    1
    50    21    19    1
    51    48    49   ar
    52    48    46   ar
    53    49    47   ar
    54    22    20    1
    55    46    44   ar
    56    37    36    1
    57    47    45   ar
    58    19    20    1
    59    19    16    1
    60    36    38    1
    61    36    33    1
    62    44    45   ar
    63    44    43    1
    64    17    16    1
    65    17    18    2
    66    62    61    2
    67    16    15    1
    68    32    33    1
    69    64    63    1
    70    43    40    1
    71    63    65    1
    72    63    60    1
    73    33    34    1
    74    61    60    1
    75    35    34    2
    76    60    59    1
    77    39    40    1
    78    40    41    1
    79    53    52    2
    80    41    42    2
    81    41    50   am
    82    52    51    1
    83    50    51    1
    84    58    56   ar
    85    55    56    1
    86    55    54    1
    87    51    54    1
    88    56    57   ar
