@<TRIPOS>MOLECULE
tmp/2oxzA00.pdb
 96 96 0 0 0
SMALL
GASTEIGER

@<TRIPOS>ATOM
      1  N          8.8990    3.4770   -2.5350 N.3    67  HIS67      -0.1241
      2  CA         8.1170    2.2580   -2.3750 C.3    67  HIS67       0.1621
      3  C          8.7400    1.0280   -3.0410 C.2    67  HIS67       0.2264
      4  O          8.2770    0.5620   -4.0980 O.2    67  HIS67      -0.2867
      5  CB         6.6910    2.4450   -2.9400 C.3    67  HIS67       0.0745
      6  CG         5.9080    3.5370   -2.2770 C.ar   67  HIS67       0.0817
      7  ND1        4.5440    3.4570   -2.0840 N.ar   67  HIS67      -0.2268
      8  CD2        6.2970    4.7290   -1.7610 C.ar   67  HIS67       0.1154
      9  CE1        4.1300    4.5620   -1.4820 C.ar   67  HIS67       0.1986
     10  NE2        5.1720    5.3520   -1.2860 N.ar   67  HIS67      -0.2212
     11  N          3.6630   -7.7050   -3.2440 N.3    75  ILE75      -0.1231
     12  CA         3.1800   -6.4730   -3.8650 C.3    75  ILE75       0.1692
     13  C          3.4120   -6.6340   -5.3550 C.2    75  ILE75       0.2592
     14  O          4.5700   -6.7770   -5.8120 O.2    75  ILE75      -0.2718
     15  CB         3.9550   -5.2090   -3.3710 C.3    75  ILE75       0.0266
     16  CG1        3.6730   -4.8180   -1.9030 C.3    75  ILE75       0.0019
     17  CG2        3.6890   -4.0010   -4.3000 C.3    75  ILE75       0.0020
     18  CD1        2.2120   -4.6690   -1.6110 C.3    75  ILE75       0.0001
     19  N          2.3230   -6.6040   -6.1130 N.am   76  LEU76      -0.1966
     20  CA         2.3950   -6.8410   -7.5770 C.3    76  LEU76       0.1728
     21  C          2.7210   -5.5890   -8.3890 C.2    76  LEU76       0.2616
     22  O          3.3820   -5.6740   -9.4550 O.2    76  LEU76      -0.2715
     23  CB         1.1310   -7.5050   -8.0820 C.3    76  LEU76       0.0311
     24  CG         0.8260   -8.9040   -7.5100 C.3    76  LEU76       0.0022
     25  CD1       -0.5380   -9.3180   -8.0110 C.3    76  LEU76       0.0001
     26  CD2        1.8320   -9.9730   -7.8830 C.3    76  LEU76       0.0001
     27  N          2.2890   -4.4300   -7.8820 N.am   77  ALA77      -0.1963
     28  CA         2.3610   -3.1680   -8.6020 C.3    77  ALA77       0.1728
     29  C          1.8700   -2.1190   -7.6740 C.2    77  ALA77       0.2616
     30  O          1.2280   -2.4560   -6.6530 O.2    77  ALA77      -0.2715
     31  CB         1.4320   -3.2160   -9.8560 C.3    77  ALA77       0.0334
     32  N          2.1330   -0.8580   -8.0100 N.am   78  HIS78      -0.1959
     33  CA         1.5220    0.2400   -7.2790 C.3    78  HIS78       0.1787
     34  C          1.4400    1.4600   -8.1690 C.2    78  HIS78       0.2620
     35  O          2.0770    1.4960   -9.2560 O.2    78  HIS78      -0.2715
     36  CB         2.3000    0.5720   -6.0120 C.3    78  HIS78       0.0785
     37  CG         3.7090    1.0090   -6.2510 C.ar   78  HIS78       0.0821
     38  ND1        4.7610    0.5310   -5.4970 N.ar   78  HIS78      -0.2267
     39  CD2        4.2390    1.9350   -7.0860 C.ar   78  HIS78       0.1154
     40  CE1        5.8870    1.0970   -5.9040 C.ar   78  HIS78       0.1986
     41  NE2        5.6000    1.9650   -6.8580 N.ar   78  HIS78      -0.2212
     42  N          0.6680    2.4540   -7.7060 N.am   79  ALA79      -0.1977
     43  CA         0.2880    3.6290   -8.4920 C.3    79  ALA79       0.1597
     44  C          0.0210    4.8060   -7.5670 C.2    79  ALA79       0.2287
     45  O         -0.3150    4.6070   -6.3490 O.2    79  ALA79      -0.2864
     46  CB        -0.9530    3.3460   -9.3230 C.3    79  ALA79       0.0319
     47  N         -6.7230   -2.3570  -12.0630 N.3   113  HIS113     -0.1226
     48  CA        -6.7130   -1.9880  -10.6280 C.3   113  HIS113      0.1752
     49  C         -5.8450   -0.7550  -10.3260 C.2   113  HIS113      0.2595
     50  O         -6.2680    0.1680   -9.5900 O.2   113  HIS113     -0.2718
     51  CB        -6.2740   -3.2070   -9.8330 C.3   113  HIS113      0.0759
     52  CG        -6.0990   -2.9630   -8.3670 C.ar  113  HIS113      0.0818
     53  ND1       -7.0910   -3.2330   -7.4410 N.ar  113  HIS113     -0.2268
     54  CD2       -5.0410   -2.4970   -7.6650 C.ar  113  HIS113      0.1154
     55  CE1       -6.6580   -2.9090   -6.2280 C.ar  113  HIS113      0.1986
     56  NE2       -5.4110   -2.4660   -6.3330 N.ar  113  HIS113     -0.2212
     57  N         -4.6340   -0.7430  -10.8880 N.am  114  GLU114     -0.1979
     58  CA        -3.6430    0.3290  -10.7530 C.3   114  GLU114      0.1602
     59  C         -4.0650    1.6550  -11.4100 C.2   114  GLU114      0.2287
     60  O         -3.8840    2.7190  -10.8390 O.2   114  GLU114     -0.2864
     61  CB        -2.3120   -0.1120  -11.4060 C.3   114  GLU114      0.0415
     62  CG        -1.5350   -1.2040  -10.6530 C.3   114  GLU114      0.1163
     63  CD        -1.6420   -1.1110   -9.0830 C.2   114  GLU114      0.3649
     64  OE1       -1.8580   -2.1420   -8.4460 O.co2 114  GLU114     -0.2457
     65  OE2       -1.4970   -0.0340   -8.4890 O.co2 114  GLU114     -0.2457
     66  N         -6.2610    3.3850   -9.2000 N.3   117  HIS117     -0.1241
     67  CA        -5.5260    4.2150   -8.2860 C.3   117  HIS117      0.1621
     68  C         -4.9770    5.5060   -8.9670 C.2   117  HIS117      0.2264
     69  O         -4.9740    6.5770   -8.3350 O.2   117  HIS117     -0.2867
     70  CB        -4.3720    3.4340   -7.6350 C.3   117  HIS117      0.0745
     71  CG        -4.7920    2.3100   -6.7280 C.ar  117  HIS117      0.0817
     72  ND1       -5.7620    2.4490   -5.7450 N.ar  117  HIS117     -0.2268
     73  CD2       -4.2870    1.0530   -6.5850 C.ar  117  HIS117      0.1154
     74  CE1       -5.8560    1.3090   -5.0740 C.ar  117  HIS117      0.1986
     75  NE2       -4.9360    0.4710   -5.5230 N.ar  117  HIS117     -0.2212
     76  N         -9.5360    4.4450   -4.0600 N.3   122  GLY122     -0.1210
     77  CA        -8.8630    3.6460   -3.0350 C.3   122  GLY122      0.1956
     78  C         -9.3240    2.1940   -3.1860 C.2   122  GLY122      0.2611
     79  O         -9.8190    1.7880   -4.2470 O.2   122  GLY122     -0.2717
     80  N         -9.1870    1.4160   -2.1280 N.am  123  HIS123     -0.1975
     81  CA        -9.5630    0.0180   -2.1640 C.3   123  HIS123      0.1656
     82  C        -11.0270   -0.2290   -1.7280 C.2   123  HIS123      0.2291
     83  O        -11.6080    0.5310   -0.9890 O.2   123  HIS123     -0.2864
     84  CB        -8.6270   -0.7790   -1.2650 C.3   123  HIS123      0.0771
     85  CG        -7.2970   -1.0950   -1.8790 C.ar  123  HIS123      0.0820
     86  ND1       -6.1260   -1.2160   -1.1400 N.ar  123  HIS123     -0.2267
     87  CD2       -6.9560   -1.3350   -3.1720 C.ar  123  HIS123      0.1154
     88  CE1       -5.1300   -1.5160   -1.9600 C.ar  123  HIS123      0.1986
     89  NE2       -5.6120   -1.6120   -3.1950 N.ar  123  HIS123     -0.2212
     90  N         -8.2650   -5.2230   -2.6290 N.3   133  PRO133     -0.2116
     91  CA        -6.8210   -5.2900   -2.5870 C.3   133  PRO133      0.1372
     92  C         -6.1400   -6.5440   -3.1110 C.2   133  PRO133      0.2244
     93  O         -5.0370   -6.4280   -3.5820 O.2   133  PRO133     -0.2868
     94  CB        -6.5000   -5.0480   -1.1060 C.3   133  PRO133      0.0268
     95  CG        -7.6390   -4.2370   -0.6250 C.3   133  PRO133      0.0207
     96  CD        -8.8240   -4.8850   -1.3030 C.3   133  PRO133      0.0892
@<TRIPOS>BOND
     1    47    48    1
     2    59    60    2
     3    59    58    1
     4    61    58    1
     5    61    62    1
     6    57    58    1
     7    57    49   am
     8    62    63    1
     9    48    49    1
    10    48    51    1
    11    49    50    2
    12    31    28    1
    13    51    52    1
    14    22    21    2
    15    46    43    1
    16    35    34    2
    17    66    67    1
    18    63    65   ar
    19    63    64   ar
    20    68    69    2
    21    68    67    1
    22    28    27    1
    23    28    29    1
    24    43    42    1
    25    43    44    1
    26    21    27   am
    27    21    20    1
    28    52    54   ar
    29    52    53   ar
    30    67    70    1
    31    34    42   am
    32    34    33    1
    33    23    20    1
    34    23    24    1
    35    25    24    1
    36    32    29   am
    37    32    33    1
    38    26    24    1
    39    29    30    2
    40    54    56   ar
    41    70    71    1
    42    20    19    1
    43    44    45    2
    44    53    55   ar
    45    33    36    1
    46    39    41   ar
    47    39    37   ar
    48    41    40   ar
    49    71    73   ar
    50    71    72   ar
    51    73    75   ar
    52    56    55   ar
    53    37    36    1
    54    37    38   ar
    55    19    13   am
    56    40    38   ar
    57    14    13    2
    58    72    74   ar
    59    75    74   ar
    60    13    12    1
    61    17    15    1
    62    79    78    2
    63     4     3    2
    64    76    77    1
    65    12    15    1
    66    12    11    1
    67    93    92    2
    68    15    16    1
    69    89    87   ar
    70    89    88   ar
    71    78    77    1
    72    78    80   am
    73    87    85   ar
    74    92    91    1
    75     3     2    1
    76     5     2    1
    77     5     6    1
    78    90    91    1
    79    90    96    1
    80    91    94    1
    81     1     2    1
    82     6     7   ar
    83     6     8   ar
    84    81    80    1
    85    81    82    1
    86    81    84    1
    87     7     9   ar
    88    88    86   ar
    89    16    18    1
    90    85    84    1
    91    85    86   ar
    92     8    10   ar
    93    82    83    2
    94     9    10   ar
    95    96    95    1
    96    94    95    1
