@<TRIPOS>MOLECULE
tmp/2oxzA01.pdb
 136 135 0 0 0
SMALL
GASTEIGER

@<TRIPOS>ATOM
      1  N          6.0320  -12.3220   -5.9290 N.3    73  GLY73      -0.1210
      2  CA         4.9440  -12.4190   -4.9290 C.3    73  GLY73       0.1956
      3  C          4.6620  -11.1110   -4.1860 C.2    73  GLY73       0.2612
      4  O          5.2520  -10.0790   -4.5110 O.2    73  GLY73      -0.2717
      5  N          3.7670  -11.1550   -3.1900 N.am   74  GLY74      -0.1942
      6  CA         3.5050   -9.9690   -2.3700 C.3    74  GLY74       0.2014
      7  C          2.9320   -8.8050   -3.1860 C.2    74  GLY74       0.2639
      8  O          1.8550   -8.9170   -3.7450 O.2    74  GLY74      -0.2714
      9  N          3.6630   -7.7050   -3.2440 N.am   75  ILE75      -0.1963
     10  CA         3.1800   -6.4730   -3.8650 C.3    75  ILE75       0.1727
     11  C          3.4120   -6.6340   -5.3550 C.2    75  ILE75       0.2616
     12  O          4.5700   -6.7770   -5.8120 O.2    75  ILE75      -0.2715
     13  CB         3.9550   -5.2090   -3.3710 C.3    75  ILE75       0.0290
     14  CG1        3.6730   -4.8180   -1.9030 C.3    75  ILE75       0.0022
     15  CG2        3.6890   -4.0010   -4.3000 C.3    75  ILE75       0.0023
     16  CD1        2.2120   -4.6690   -1.6110 C.3    75  ILE75       0.0001
     17  N          2.3230   -6.6040   -6.1130 N.am   76  LEU76      -0.1963
     18  CA         2.3950   -6.8410   -7.5770 C.3    76  LEU76       0.1728
     19  C          2.7210   -5.5890   -8.3890 C.2    76  LEU76       0.2616
     20  O          3.3820   -5.6740   -9.4550 O.2    76  LEU76      -0.2715
     21  CB         1.1310   -7.5050   -8.0820 C.3    76  LEU76       0.0311
     22  CG         0.8260   -8.9040   -7.5100 C.3    76  LEU76       0.0022
     23  CD1       -0.5380   -9.3180   -8.0110 C.3    76  LEU76       0.0001
     24  CD2        1.8320   -9.9730   -7.8830 C.3    76  LEU76       0.0001
     25  N          2.2890   -4.4300   -7.8820 N.am   77  ALA77      -0.1977
     26  CA         2.3610   -3.1680   -8.6020 C.3    77  ALA77       0.1597
     27  C          1.8700   -2.1190   -7.6740 C.2    77  ALA77       0.2287
     28  O          1.2280   -2.4560   -6.6530 O.2    77  ALA77      -0.2864
     29  CB         1.4320   -3.2160   -9.8560 C.3    77  ALA77       0.0319
     30  N         -5.6080   -7.2230  -15.9540 N.3   109  LEU109     -0.1231
     31  CA        -6.3010   -7.1710  -14.6560 C.3   109  LEU109      0.1693
     32  C         -5.5990   -6.2640  -13.6470 C.2   109  LEU109      0.2592
     33  O         -6.2610   -5.4440  -12.9870 O.2   109  LEU109     -0.2718
     34  CB        -6.5040   -8.6000  -14.1150 C.3   109  LEU109      0.0284
     35  CG        -7.7050   -9.2470  -14.8190 C.3   109  LEU109      0.0019
     36  CD1       -7.9650  -10.7020  -14.3570 C.3   109  LEU109      0.0001
     37  CD2       -8.9320   -8.3920  -14.6090 C.3   109  LEU109      0.0001
     38  N         -4.2540   -6.3970  -13.5550 N.am  110  THR110     -0.1953
     39  CA        -3.4640   -5.6140  -12.5850 C.3   110  THR110      0.1897
     40  C         -3.4450   -4.1320  -12.9600 C.2   110  THR110      0.2313
     41  O         -3.5610   -3.2460  -12.1110 O.2   110  THR110     -0.2863
     42  CB        -2.0110   -6.1790  -12.3840 C.3   110  THR110      0.1794
     43  OG1       -2.1060   -7.6060  -12.3170 O.3   110  THR110     -0.2208
     44  CG2       -1.4080   -5.6750  -11.0820 C.3   110  THR110      0.0378
     45  N         -6.7230   -2.3570  -12.0630 N.3   113  HIS113     -0.1226
     46  CA        -6.7130   -1.9880  -10.6280 C.3   113  HIS113      0.1752
     47  C         -5.8450   -0.7550  -10.3260 C.2   113  HIS113      0.2595
     48  O         -6.2680    0.1680   -9.5900 O.2   113  HIS113     -0.2718
     49  CB        -6.2740   -3.2070   -9.8330 C.3   113  HIS113      0.0759
     50  CG        -6.0990   -2.9630   -8.3670 C.ar  113  HIS113      0.0818
     51  ND1       -7.0910   -3.2330   -7.4410 N.ar  113  HIS113     -0.2268
     52  CD2       -5.0410   -2.4970   -7.6650 C.ar  113  HIS113      0.1154
     53  CE1       -6.6580   -2.9090   -6.2280 C.ar  113  HIS113      0.1986
     54  NE2       -5.4110   -2.4660   -6.3330 N.ar  113  HIS113     -0.2212
     55  N         -4.6340   -0.7430  -10.8880 N.am  114  GLU114     -0.1979
     56  CA        -3.6430    0.3290  -10.7530 C.3   114  GLU114      0.1602
     57  C         -4.0650    1.6550  -11.4100 C.2   114  GLU114      0.2287
     58  O         -3.8840    2.7190  -10.8390 O.2   114  GLU114     -0.2864
     59  CB        -2.3120   -0.1120  -11.4060 C.3   114  GLU114      0.0415
     60  CG        -1.5350   -1.2040  -10.6530 C.3   114  GLU114      0.1163
     61  CD        -1.6420   -1.1110   -9.0830 C.2   114  GLU114      0.3649
     62  OE1       -1.8580   -2.1420   -8.4460 O.co2 114  GLU114     -0.2457
     63  OE2       -1.4970   -0.0340   -8.4890 O.co2 114  GLU114     -0.2457
     64  N         -6.2610    3.3850   -9.2000 N.3   117  HIS117     -0.1241
     65  CA        -5.5260    4.2150   -8.2860 C.3   117  HIS117      0.1621
     66  C         -4.9770    5.5060   -8.9670 C.2   117  HIS117      0.2264
     67  O         -4.9740    6.5770   -8.3350 O.2   117  HIS117     -0.2867
     68  CB        -4.3720    3.4340   -7.6350 C.3   117  HIS117      0.0745
     69  CG        -4.7920    2.3100   -6.7280 C.ar  117  HIS117      0.0817
     70  ND1       -5.7620    2.4490   -5.7450 N.ar  117  HIS117     -0.2268
     71  CD2       -4.2870    1.0530   -6.5850 C.ar  117  HIS117      0.1154
     72  CE1       -5.8560    1.3090   -5.0740 C.ar  117  HIS117      0.1986
     73  NE2       -4.9360    0.4710   -5.5230 N.ar  117  HIS117     -0.2212
     74  N         -9.1870    1.4160   -2.1280 N.3   123  HIS123     -0.1241
     75  CA        -9.5630    0.0180   -2.1640 C.3   123  HIS123      0.1621
     76  C        -11.0270   -0.2290   -1.7280 C.2   123  HIS123      0.2264
     77  O        -11.6080    0.5310   -0.9890 O.2   123  HIS123     -0.2867
     78  CB        -8.6270   -0.7790   -1.2650 C.3   123  HIS123      0.0745
     79  CG        -7.2970   -1.0950   -1.8790 C.ar  123  HIS123      0.0817
     80  ND1       -6.1260   -1.2160   -1.1400 N.ar  123  HIS123     -0.2268
     81  CD2       -6.9560   -1.3350   -3.1720 C.ar  123  HIS123      0.1154
     82  CE1       -5.1300   -1.5160   -1.9600 C.ar  123  HIS123      0.1986
     83  NE2       -5.6120   -1.6120   -3.1950 N.ar  123  HIS123     -0.2212
     84  N        -12.9090   -4.9420   -8.6150 N.3   130  VAL130     -0.1245
     85  CA       -11.5210   -5.0100   -9.1200 C.3   130  VAL130      0.1561
     86  C        -10.5130   -4.2550   -8.1900 C.2   130  VAL130      0.2260
     87  O         -9.3020   -4.5120   -8.2070 O.2   130  VAL130     -0.2867
     88  CB       -11.3980   -4.5020  -10.6100 C.3   130  VAL130      0.0252
     89  CG1      -11.4910   -2.9850  -10.7250 C.3   130  VAL130      0.0019
     90  CG2      -10.0760   -4.9770  -11.2390 C.3   130  VAL130      0.0019
     91  N        -10.8050   -4.3360   -4.9040 N.3   132  PHE132     -0.1228
     92  CA       -10.4100   -5.2210   -3.7780 C.3   132  PHE132      0.1721
     93  C         -8.9050   -5.3400   -3.7980 C.2   132  PHE132      0.2437
     94  O         -8.3160   -5.4560   -4.8670 O.2   132  PHE132     -0.2733
     95  CB       -10.9860   -6.6030   -3.9340 C.3   132  PHE132      0.0547
     96  CG       -10.9460   -7.4360   -2.6720 C.ar  132  PHE132     -0.0202
     97  CD1      -11.5900   -7.0190   -1.4990 C.ar  132  PHE132     -0.0042
     98  CD2      -10.3410   -8.6690   -2.6900 C.ar  132  PHE132     -0.0042
     99  CE1      -11.5900   -7.8500   -0.4000 C.ar  132  PHE132     -0.0003
    100  CE2      -10.3370   -9.4630   -1.6120 C.ar  132  PHE132     -0.0003
    101  CZ       -10.9630   -9.0530   -0.4590 C.ar  132  PHE132     -0.0000
    102  N         -8.2650   -5.2230   -2.6290 N.am  133  PRO133     -0.2718
    103  CA        -6.8210   -5.2900   -2.5870 C.3   133  PRO133      0.1535
    104  C         -6.1400   -6.5440   -3.1110 C.2   133  PRO133      0.2599
    105  O         -5.0370   -6.4280   -3.5820 O.2   133  PRO133     -0.2715
    106  CB        -6.5000   -5.0480   -1.1060 C.3   133  PRO133      0.0310
    107  CG        -7.6390   -4.2370   -0.6250 C.3   133  PRO133      0.0237
    108  CD        -8.8240   -4.8850   -1.3030 C.3   133  PRO133      0.0939
    109  N         -6.7730   -7.7200   -3.0980 N.am  134  THR134     -0.1937
    110  CA        -6.0800   -8.9230   -3.5660 C.3   134  THR134      0.2028
    111  C         -6.3880   -9.3790   -5.0110 C.2   134  THR134      0.2642
    112  O         -7.5650   -9.4380   -5.4350 O.2   134  THR134     -0.2714
    113  CB        -6.2340  -10.0740   -2.5590 C.3   134  THR134      0.1808
    114  OG1       -5.5250   -9.6920   -1.3640 O.3   134  THR134     -0.2208
    115  CG2       -5.6290  -11.3610   -3.1160 C.3   134  THR134      0.0379
    116  N         -5.3080   -9.6850   -5.7520 N.am  135  TYR135     -0.1959
    117  CA        -5.3620  -10.1210   -7.1650 C.3   135  TYR135      0.1771
    118  C         -6.1420  -11.4600   -7.3110 C.2   135  TYR135      0.2619
    119  O         -5.7820  -12.4640   -6.6580 O.2   135  TYR135     -0.2715
    120  CB        -3.9260  -10.2290   -7.7660 C.3   135  TYR135      0.0574
    121  CG        -3.8860  -10.9110   -9.1530 C.ar  135  TYR135     -0.0198
    122  CD1       -4.0010  -10.1680  -10.3310 C.ar  135  TYR135     -0.0009
    123  CD2       -3.7910  -12.3080   -9.2610 C.ar  135  TYR135     -0.0009
    124  CE1       -4.0000  -10.7890  -11.5830 C.ar  135  TYR135      0.0417
    125  CE2       -3.7740  -12.9420  -10.4970 C.ar  135  TYR135      0.0417
    126  CZ        -3.8920  -12.1880  -11.6510 C.ar  135  TYR135      0.1957
    127  OH        -3.8920  -12.8290  -12.8600 O.3   135  TYR135     -0.2866
    128  N         -7.2110  -11.4400   -8.1200 N.am  136  LYS136     -0.1977
    129  CA        -7.9500  -12.6530   -8.5240 C.3   136  LYS136      0.1596
    130  C         -7.9870  -12.7840  -10.0600 C.2   136  LYS136      0.2287
    131  O         -8.4200  -11.8460  -10.7370 O.2   136  LYS136     -0.2864
    132  CB        -9.3860  -12.6290   -8.0070 C.3   136  LYS136      0.0298
    133  CG        -9.9230  -14.0380   -7.7970 C.3   136  LYS136      0.0038
    134  CD       -11.3550  -14.2300   -8.2730 C.3   136  LYS136      0.0206
    135  CE       -11.6020  -15.6460   -8.8580 C.3   136  LYS136      0.1093
    136  NZ       -11.4850  -16.7610   -7.8460 N.3   136  LYS136     -0.1314
@<TRIPOS>BOND
     1    30    31    1
     2    35    37    1
     3    35    36    1
     4    35    34    1
     5    31    34    1
     6    31    32    1
     7    32    38   am
     8    32    33    2
     9    38    39    1
    10    40    39    1
    11    40    41    2
    12   127   126    1
    13    39    42    1
    14    42    43    1
    15    42    44    1
    16    45    46    1
    17   126   124   ar
    18   126   125   ar
    19   124   122   ar
    20    57    58    2
    21    57    56    1
    22    59    56    1
    23    59    60    1
    24    90    88    1
    25    55    56    1
    26    55    47   am
    27   131   130    2
    28    89    88    1
    29    60    61    1
    30    46    47    1
    31    46    49    1
    32    88    85    1
    33   125   123   ar
    34   122   121   ar
    35    47    48    2
    36   130   129    1
    37    29    26    1
    38    49    50    1
    39    20    19    2
    40   123   121   ar
    41    64    65    1
    42   121   120    1
    43    85    84    1
    44    85    86    1
    45    61    63   ar
    46    61    62   ar
    47    66    67    2
    48    66    65    1
    49   135   134    1
    50   135   136    1
    51    26    25    1
    52    26    27    1
    53   129   128    1
    54   129   132    1
    55    19    25   am
    56    19    18    1
    57    50    52   ar
    58    50    51   ar
    59    65    68    1
    60   134   133    1
    61    87    86    2
    62   128   118   am
    63    21    18    1
    64    21    22    1
    65    23    22    1
    66   132   133    1
    67    24    22    1
    68   120   117    1
    69    27    28    2
    70    52    54   ar
    71    68    69    1
    72    18    17    1
    73    51    53   ar
    74   118   117    1
    75   118   119    2
    76   117   116    1
    77    69    71   ar
    78    69    70   ar
    79    71    73   ar
    80    54    53   ar
    81    17    11   am
    82     1     2    1
    83    12    11    2
    84   116   111   am
    85    70    72   ar
    86    73    72   ar
    87   112   111    2
    88    11    10    1
    89   111   110    1
    90     2     3    1
    91    91    92    1
    92    94    93    2
    93     4     3    2
    94    15    13    1
    95     3     5   am
    96    95    92    1
    97    95    96    1
    98    10    13    1
    99    10     9    1
   100    93    92    1
   101    93   102   am
   102     8     7    2
   103   105   104    2
   104   110   109    1
   105   110   113    1
   106    13    14    1
   107     9     7   am
   108    83    81   ar
   109    83    82   ar
   110     5     6    1
   111     7     6    1
   112    81    79   ar
   113   115   113    1
   114   104   109   am
   115   104   103    1
   116    98    96   ar
   117    98   100   ar
   118    96    97   ar
   119   102   103    1
   120   102   108    1
   121   103   106    1
   122   113   114    1
   123    75    74    1
   124    75    76    1
   125    75    78    1
   126    82    80   ar
   127    14    16    1
   128    79    78    1
   129    79    80   ar
   130    76    77    2
   131   100   101   ar
   132    97    99   ar
   133   108   107    1
   134   106   107    1
   135   101    99   ar
