@<TRIPOS>MOLECULE
tmp/2oy0B00.pdb
 171 166 0 0 0
SMALL
GASTEIGER

@<TRIPOS>ATOM
      1  N         -1.3050    4.6420  -47.3730 N.3    51  SER51      -0.1217
      2  CA        -1.4130    4.9920  -48.7940 C.3    51  SER51       0.1889
      3  C         -2.5690    4.2620  -49.4500 C.2    51  SER51       0.2288
      4  O         -3.2260    3.4360  -48.8210 O.2    51  SER51      -0.2866
      5  CB        -0.1190    4.6390  -49.5360 C.3    51  SER51       0.2089
      6  OG         0.0470    3.2390  -49.6340 O.3    51  SER51      -0.2183
      7  N         -2.1430    2.2640  -51.3760 N.3    53  GLY53      -0.1225
      8  CA        -1.5350    0.9640  -51.5450 C.3    53  GLY53       0.1811
      9  C         -2.3280   -0.1590  -50.9210 C.2    53  GLY53       0.2280
     10  O         -2.9810   -0.9060  -51.6320 O.2    53  GLY53      -0.2866
     11  N          8.6520   -7.5770  -49.2280 N.3    74  ASP74      -0.1239
     12  CA         8.0520   -6.6640  -50.1820 C.3    74  ASP74       0.1674
     13  C          9.1380   -5.8100  -50.8490 C.2    74  ASP74       0.2266
     14  O          9.9990   -5.2430  -50.1810 O.2    74  ASP74      -0.2867
     15  CB         7.0440   -5.7810  -49.4520 C.3    74  ASP74       0.1410
     16  CG         6.2700   -4.8970  -50.3830 C.2    74  ASP74       0.3668
     17  OD1        5.5500   -4.0070  -49.8860 O.co2  74  ASP74      -0.2456
     18  OD2        6.3740   -5.0880  -51.6130 O.co2  74  ASP74      -0.2456
     19  N         10.1990   -2.5650  -53.2090 N.3    76  GLY76      -0.1210
     20  CA         9.6630   -1.2660  -53.5640 C.3    76  GLY76       0.1956
     21  C          8.3840   -1.1390  -52.7630 C.2    76  GLY76       0.2612
     22  O          7.2880   -1.3450  -53.2880 O.2    76  GLY76      -0.2717
     23  N          8.5330   -0.8030  -51.4850 N.am   77  CYS77      -0.1956
     24  CA         7.4060   -0.6810  -50.5710 C.3    77  CYS77       0.1843
     25  C          6.9410    0.7460  -50.3150 C.2    77  CYS77       0.2626
     26  O          5.8620    0.9630  -49.7790 O.2    77  CYS77      -0.2714
     27  CB         7.7880   -1.3360  -49.2570 C.3    77  CYS77       0.0997
     28  SG         8.8390   -2.7780  -49.5120 S.3    77  CYS77      -0.0797
     29  N          7.7590    1.7140  -50.6950 N.am   78  GLY78      -0.1940
     30  CA         7.3910    3.0990  -50.4870 C.3    78  GLY78       0.2014
     31  C          7.0360    3.4160  -49.0490 C.2    78  GLY78       0.2639
     32  O          7.8420    3.2090  -48.1440 O.2    78  GLY78      -0.2714
     33  N          5.8240    3.9180  -48.8330 N.am   79  ARG79      -0.1963
     34  CA         5.3760    4.2650  -47.4890 C.3    79  ARG79       0.1729
     35  C          5.0670    3.0570  -46.6180 C.2    79  ARG79       0.2617
     36  O          5.3770    3.0580  -45.4260 O.2    79  ARG79      -0.2715
     37  CB         4.1550    5.1780  -47.5560 C.3    79  ARG79       0.0348
     38  CG         4.5070    6.6470  -47.6060 C.3    79  ARG79       0.0492
     39  CD         3.2800    7.4920  -47.3960 C.3    79  ARG79       0.2205
     40  NE         3.6110    8.8840  -47.1200 N.pl3  79  ARG79      -0.0865
     41  CZ         2.7300    9.7740  -46.6690 C.cat  79  ARG79       0.5346
     42  NH1        1.4700    9.4080  -46.4470 N.pl3  79  ARG79       0.1354
     43  NH2        3.1040   11.0290  -46.4320 N.pl3  79  ARG79       0.1354
     44  N          4.4340    2.0400  -47.1970 N.am   80  GLY80      -0.1940
     45  CA         4.1530    0.8420  -46.4270 C.3    80  GLY80       0.2014
     46  C          2.7740    0.2200  -46.4800 C.2    80  GLY80       0.2639
     47  O          2.4560   -0.6140  -45.6340 O.2    80  GLY80      -0.2714
     48  N          1.9600    0.6020  -47.4560 N.am   81  GLY81      -0.1939
     49  CA         0.6240    0.0420  -47.5500 C.3    81  GLY81       0.2014
     50  C          0.5690   -1.4790  -47.5440 C.2    81  GLY81       0.2638
     51  O         -0.1330   -2.0750  -46.7270 O.2    81  GLY81      -0.2714
     52  N          1.3050   -2.1140  -48.4530 N.am   82  TRP82      -0.1973
     53  CA         1.3120   -3.5720  -48.5430 C.3    82  TRP82       0.1640
     54  C          1.8800   -4.2480  -47.3070 C.2    82  TRP82       0.2290
     55  O          1.4180   -5.3060  -46.9210 O.2    82  TRP82      -0.2864
     56  CB         2.0860   -4.0240  -49.7870 C.3    82  TRP82       0.0576
     57  CG         1.3380   -3.8140  -51.0790 C.ar   82  TRP82       0.0006
     58  CD1        0.3180   -2.9400  -51.2970 C.ar   82  TRP82       0.0946
     59  CD2        1.5870   -4.4580  -52.3360 C.ar   82  TRP82       0.0152
     60  NE1       -0.0860   -2.9950  -52.6070 N.ar   82  TRP82      -0.2442
     61  CE2        0.6770   -3.9170  -53.2700 C.ar   82  TRP82       0.0810
     62  CE3        2.4920   -5.4400  -52.7650 C.ar   82  TRP82       0.0012
     63  CZ2        0.6440   -4.3210  -54.6130 C.ar   82  TRP82       0.0191
     64  CZ3        2.4600   -5.8440  -54.1050 C.ar   82  TRP82       0.0001
     65  CH2        1.5410   -5.2820  -55.0080 C.ar   82  TRP82       0.0015
     66  N         13.0320   -0.4620  -49.9400 N.3    99  THR99      -0.1203
     67  CA        12.6940    0.6320  -50.8540 C.3    99  THR99       0.1994
     68  C         13.8870    1.5510  -51.1360 C.2    99  THR99       0.2617
     69  O         14.8350    1.6210  -50.3530 O.2    99  THR99      -0.2717
     70  CB        11.5490    1.5050  -50.3090 C.3    99  THR99       0.1784
     71  OG1       10.5300    0.6690  -49.7530 O.3    99  THR99      -0.2211
     72  CG2       10.9310    2.3270  -51.4380 C.3    99  THR99       0.0376
     73  N         13.8150    2.2640  -52.2550 N.am  100  LYS100     -0.1979
     74  CA        14.8670    3.1670  -52.6890 C.3   100  LYS100      0.1596
     75  C         15.0910    4.3590  -51.7630 C.2   100  LYS100      0.2287
     76  O         16.2290    4.7420  -51.5050 O.2   100  LYS100     -0.2864
     77  CB        14.5450    3.6720  -54.1000 C.3   100  LYS100      0.0298
     78  CG        15.6310    4.5200  -54.7500 C.3   100  LYS100      0.0038
     79  CD        16.4340    3.7130  -55.7560 C.3   100  LYS100      0.0206
     80  CE        17.6920    4.4440  -56.1900 C.3   100  LYS100      0.1093
     81  NZ        18.6530    4.5920  -55.0500 N.3   100  LYS100     -0.1314
     82  N         11.7700    9.8160  -54.0920 N.3   105  HIS105     -0.1226
     83  CA        11.2780    8.5000  -53.6930 C.3   105  HIS105      0.1752
     84  C         10.7850    8.4810  -52.2500 C.2   105  HIS105      0.2595
     85  O         11.5140    8.8570  -51.3250 O.2   105  HIS105     -0.2718
     86  CB        12.3890    7.4470  -53.8790 C.3   105  HIS105      0.0759
     87  CG        12.7320    7.1860  -55.3110 C.ar  105  HIS105      0.0818
     88  ND1       12.1160    6.2020  -56.0530 N.ar  105  HIS105     -0.2268
     89  CD2       13.5460    7.8500  -56.1670 C.ar  105  HIS105      0.1154
     90  CE1       12.5310    6.2760  -57.3060 C.ar  105  HIS105      0.1986
     91  NE2       13.3980    7.2680  -57.4020 N.ar  105  HIS105     -0.2212
     92  N          9.5420    8.0330  -52.0730 N.am  106  GLU106     -0.1979
     93  CA         8.9380    7.9420  -50.7490 C.3   106  GLU106      0.1602
     94  C          9.8350    7.1860  -49.7780 C.2   106  GLU106      0.2287
     95  O         10.6840    6.3790  -50.1710 O.2   106  GLU106     -0.2864
     96  CB         7.5730    7.2390  -50.8030 C.3   106  GLU106      0.0415
     97  CG         6.5140    7.9460  -51.6300 C.3   106  GLU106      0.1163
     98  CD         6.5830    7.6090  -53.1220 C.2   106  GLU106      0.3649
     99  OE1        5.7140    8.0880  -53.8810 O.co2 106  GLU106     -0.2457
    100  OE2        7.5010    6.8680  -53.5310 O.co2 106  GLU106     -0.2457
    101  N         17.5620    1.4870  -50.0530 N.3   125  VAL125     -0.1231
    102  CA        17.9770    0.2110  -50.6400 C.3   125  VAL125      0.1692
    103  C         17.4590    0.0630  -52.0660 C.2   125  VAL125      0.2592
    104  O         16.2660    0.2290  -52.3080 O.2   125  VAL125     -0.2718
    105  CB        17.4120   -0.9980  -49.8540 C.3   125  VAL125      0.0266
    106  CG1       17.8060   -2.2980  -50.5610 C.3   125  VAL125      0.0020
    107  CG2       17.9040   -0.9780  -48.3990 C.3   125  VAL125      0.0020
    108  N         18.3370   -0.2440  -53.0130 N.am  126  ASP126     -0.1960
    109  CA        17.8670   -0.4380  -54.3780 C.3   126  ASP126      0.1840
    110  C         17.7970   -1.9220  -54.6630 C.2   126  ASP126      0.2622
    111  O         18.8120   -2.5990  -54.7130 O.2   126  ASP126     -0.2715
    112  CB        18.7800    0.2070  -55.4000 C.3   126  ASP126      0.1450
    113  CG        18.2030    0.1400  -56.7900 C.2   126  ASP126      0.3671
    114  OD1       17.6970   -0.9380  -57.1570 O.co2 126  ASP126     -0.2456
    115  OD2       18.2550    1.1610  -57.5050 O.co2 126  ASP126     -0.2456
    116  N         16.5820   -2.4130  -54.8570 N.am  127  VAL127     -0.1963
    117  CA        16.3340   -3.8180  -55.1130 C.3   127  VAL127      0.1727
    118  C         16.9880   -4.3770  -56.3860 C.2   127  VAL127      0.2616
    119  O         17.0710   -5.5940  -56.5590 O.2   127  VAL127     -0.2715
    120  CB        14.8040   -4.0790  -55.1320 C.3   127  VAL127      0.0290
    121  CG1       14.5120   -5.4640  -55.6560 C.3   127  VAL127      0.0023
    122  CG2       14.2320   -3.9450  -53.7220 C.3   127  VAL127      0.0023
    123  N         17.4560   -3.5190  -57.2840 N.am  128  PHE128     -0.1974
    124  CA        18.0840   -4.0510  -58.4870 C.3   128  PHE128      0.1639
    125  C         19.5250   -4.4540  -58.2330 C.2   128  PHE128      0.2290
    126  O         20.1570   -5.0650  -59.0850 O.2   128  PHE128     -0.2864
    127  CB        18.0620   -3.0400  -59.6410 C.3   128  PHE128      0.0560
    128  CG        16.7270   -2.8910  -60.2920 C.ar  128  PHE128     -0.0200
    129  CD1       16.0020   -1.7270  -60.1370 C.ar  128  PHE128     -0.0042
    130  CD2       16.1700   -3.9320  -61.0260 C.ar  128  PHE128     -0.0042
    131  CE1       14.7510   -1.5960  -60.6930 C.ar  128  PHE128     -0.0003
    132  CE2       14.9090   -3.8070  -61.5900 C.ar  128  PHE128     -0.0003
    133  CZ        14.2020   -2.6400  -61.4180 C.ar  128  PHE128     -0.0000
    134  N          6.1280   -4.0940  -56.2230 N.3   141  ASP141     -0.1225
    135  CA         5.1630   -3.1510  -56.7800 C.3   141  ASP141      0.1805
    136  C          5.8890   -2.0270  -57.5330 C.2   141  ASP141      0.2598
    137  O          5.3840   -0.9150  -57.6550 O.2   141  ASP141     -0.2718
    138  CB         4.2880   -2.5710  -55.6650 C.3   141  ASP141      0.1424
    139  CG         2.9680   -2.0450  -56.1790 C.2   141  ASP141      0.3668
    140  OD1        2.2830   -1.3150  -55.4360 O.co2 141  ASP141     -0.2456
    141  OD2        2.6070   -2.3680  -57.3250 O.co2 141  ASP141     -0.2456
    142  N          7.0770   -2.3440  -58.0400 N.am  142  ILE142     -0.1966
    143  CA         7.9120   -1.4000  -58.7770 C.3   142  ILE142      0.1727
    144  C          7.5040   -1.3320  -60.2400 C.2   142  ILE142      0.2617
    145  O          7.1300   -2.3410  -60.8280 O.2   142  ILE142     -0.2715
    146  CB         9.3970   -1.8180  -58.7130 C.3   142  ILE142      0.0290
    147  CG1        9.9170   -1.6520  -57.2890 C.3   142  ILE142      0.0022
    148  CG2       10.2270   -0.9960  -59.6810 C.3   142  ILE142      0.0023
    149  CD1       11.2770   -2.2570  -57.0730 C.3   142  ILE142      0.0001
    150  N          7.5940   -0.1340  -60.8160 N.am  143  GLY143     -0.1940
    151  CA         7.2460    0.0820  -62.2130 C.3   143  GLY143      0.2014
    152  C          7.2630    1.5710  -62.5240 C.2   143  GLY143      0.2638
    153  O          6.2480    2.2530  -62.3700 O.2   143  GLY143     -0.2714
    154  N          8.4150    2.0800  -62.9580 N.am  144  GLU144     -0.1977
    155  CA         8.5640    3.4990  -63.2660 C.3   144  GLU144      0.1602
    156  C          8.0640    3.8770  -64.6760 C.2   144  GLU144      0.2287
    157  O          8.7790    3.7100  -65.6750 O.2   144  GLU144     -0.2864
    158  CB        10.0330    3.9030  -63.0890 C.3   144  GLU144      0.0415
    159  CG        10.6290    3.6340  -61.6880 C.3   144  GLU144      0.1163
    160  CD        10.0520    4.5160  -60.5610 C.2   144  GLU144      0.3649
    161  OE1        9.0460    4.1360  -59.9210 O.co2 144  GLU144     -0.2457
    162  OE2       10.6160    5.6020  -60.3150 O.co2 144  GLU144     -0.2457
    163  N          3.7270   -6.5630  -59.6410 N.3   177  LYS177     -0.1245
    164  CA         3.1490   -5.6450  -60.6050 C.3   177  LYS177      0.1561
    165  C          3.8770   -5.6060  -61.9520 C.2   177  LYS177      0.2260
    166  O          5.0600   -5.2620  -62.0150 O.2   177  LYS177     -0.2867
    167  CB         3.1160   -4.2380  -60.0100 C.3   177  LYS177      0.0271
    168  CG         2.3690   -3.2290  -60.8660 C.3   177  LYS177      0.0035
    169  CD         2.5220   -1.8210  -60.3210 C.3   177  LYS177      0.0206
    170  CE         3.9740   -1.3860  -60.3830 C.3   177  LYS177      0.1093
    171  NZ         4.1900   -0.0860  -59.7160 N.3   177  LYS177     -0.1314
@<TRIPOS>BOND
     1   157   156    2
     2   156   155    1
     3   155   158    1
     4   155   154    1
     5   158   159    1
     6   154   152   am
     7   152   153    2
     8   152   151    1
     9   151   150    1
    10   166   165    2
    11   165   164    1
    12   159   160    1
    13   132   133   ar
    14   132   130   ar
    15   133   131   ar
    16   130   128   ar
    17   168   169    1
    18   168   167    1
    19   145   144    2
    20   150   144   am
    21   131   129   ar
    22   164   167    1
    23   164   163    1
    24   160   162   ar
    25   160   161   ar
    26   170   169    1
    27   170   171    1
    28   128   129   ar
    29   128   127    1
    30   144   143    1
    31   148   146    1
    32   127   124    1
    33   126   125    2
    34   143   146    1
    35   143   142    1
    36   146   147    1
    37   124   125    1
    38   124   123    1
    39   142   136   am
    40   137   136    2
    41   136   135    1
    42   115   113   ar
    43    91    90   ar
    44    91    89   ar
    45   141   139   ar
    46    90    88   ar
    47   147   149    1
    48   123   118   am
    49   114   113   ar
    50   113   112    1
    51   135   134    1
    52   135   138    1
    53   119   118    2
    54   118   117    1
    55    80    79    1
    56    80    81    1
    57   139   138    1
    58   139   140   ar
    59    89    87   ar
    60    88    87   ar
    61    79    78    1
    62   121   120    1
    63   112   109    1
    64    87    86    1
    65   120   117    1
    66   120   122    1
    67   117   116    1
    68    65    63   ar
    69    65    64   ar
    70   116   110   am
    71    78    77    1
    72   111   110    2
    73   110   109    1
    74    63    61   ar
    75   109   108    1
    76    64    62   ar
    77    77    74    1
    78    82    83    1
    79    99    98   ar
    80    86    83    1
    81    83    84    1
    82    20    19    1
    83    20    21    1
    84   100    98   ar
    85    22    21    2
    86    61    60   ar
    87    61    59   ar
    88    98    97    1
    89   108   103   am
    90    62    59   ar
    91    21    23   am
    92    74    73    1
    93    74    75    1
    94    60    58   ar
    95    59    57   ar
    96   104   103    2
    97    73    68   am
    98    84    92   am
    99    84    85    2
   100    92    93    1
   101   103   102    1
   102    75    76    2
   103    10     9    2
   104    97    96    1
   105    18    16   ar
   106     8     7    1
   107     8     9    1
   108    23    24    1
   109    72    70    1
   110    58    57   ar
   111    68    67    1
   112    68    69    2
   113    57    56    1
   114    67    70    1
   115    67    66    1
   116    13    12    1
   117    13    14    2
   118    96    93    1
   119    93    94    1
   120    29    30    1
   121    29    25   am
   122   102   101    1
   123   102   105    1
   124    24    25    1
   125    24    27    1
   126   106   105    1
   127    30    31    1
   128    16    17   ar
   129    16    15    1
   130    25    26    2
   131    70    71    1
   132    12    15    1
   133    12    11    1
   134    95    94    2
   135   105   107    1
   136    56    53    1
   137     6     5    1
   138     5     2    1
   139    28    27    1
   140     3     4    2
   141     3     2    1
   142    31    33   am
   143    31    32    2
   144    33    34    1
   145     2     1    1
   146    53    52    1
   147    53    54    1
   148    52    50   am
   149    38    37    1
   150    38    39    1
   151    37    34    1
   152    49    50    1
   153    49    48    1
   154    50    51    2
   155    34    35    1
   156    48    46   am
   157    39    40    1
   158    54    55    2
   159    44    35   am
   160    44    45    1
   161    40    41    2
   162    41    42    1
   163    41    43    1
   164    35    36    2
   165    46    45    1
   166    46    47    2
