@<TRIPOS>MOLECULE
tmp/2oy2A00.pdb
 156 156 0 0 0
SMALL
GASTEIGER

@<TRIPOS>ATOM
      1  N        -14.3570    6.8740   11.0040 N.3    72  ASN72      -0.1225
      2  CA       -14.9850    5.6860   10.4180 C.3    72  ASN72       0.1785
      3  C        -15.1310    5.8270    8.8980 C.2    72  ASN72       0.2598
      4  O        -14.4100    6.6320    8.2890 O.2    72  ASN72      -0.2718
      5  CB       -16.2850    5.3340   11.1600 C.3    72  ASN72       0.1169
      6  CG       -16.0620    5.1800   12.6520 C.2    72  ASN72       0.2627
      7  OD1      -15.2360    4.3680   13.0780 O.2    72  ASN72      -0.2716
      8  ND2      -16.7680    5.9770   13.4540 N.am   72  ASN72      -0.0877
      9  N        -16.0000    5.0400    8.2670 N.am   73  GLY73      -0.1942
     10  CA       -16.0810    5.0450    6.8040 C.3    73  GLY73       0.2014
     11  C        -14.7410    4.6460    6.1990 C.2    73  GLY73       0.2639
     12  O        -14.1540    3.6360    6.5930 O.2    73  GLY73      -0.2714
     13  N        -14.2370    5.4480    5.2670 N.am   74  ILE74      -0.1963
     14  CA       -12.9460    5.1550    4.6370 C.3    74  ILE74       0.1727
     15  C        -11.8270    5.3500    5.6540 C.2    74  ILE74       0.2616
     16  O        -11.7210    6.4220    6.2590 O.2    74  ILE74      -0.2715
     17  CB       -12.6880    6.0560    3.4110 C.3    74  ILE74       0.0290
     18  CG1      -13.7900    5.8360    2.3640 C.3    74  ILE74       0.0022
     19  CG2      -11.2790    5.8020    2.8410 C.3    74  ILE74       0.0023
     20  CD1      -14.1550    7.0640    1.5620 C.3    74  ILE74       0.0001
     21  N        -11.0000    4.3220    5.8420 N.am   75  LEU75      -0.1963
     22  CA        -9.9470    4.3780    6.8590 C.3    75  LEU75       0.1728
     23  C         -8.6070    4.8050    6.2820 C.2    75  LEU75       0.2616
     24  O         -7.7730    5.3860    6.9940 O.2    75  LEU75      -0.2715
     25  CB        -9.7690    3.0190    7.5490 C.3    75  LEU75       0.0311
     26  CG       -11.0380    2.3440    8.0850 C.3    75  LEU75       0.0022
     27  CD1      -10.6770    0.9940    8.6860 C.3    75  LEU75       0.0001
     28  CD2      -11.7520    3.2270    9.1010 C.3    75  LEU75       0.0001
     29  N         -8.4090    4.5080    4.9970 N.am   76  ALA76      -0.1963
     30  CA        -7.1210    4.6650    4.3320 C.3    76  ALA76       0.1728
     31  C         -7.3400    4.3330    2.8810 C.2    76  ALA76       0.2616
     32  O         -8.3680    3.7650    2.5220 O.2    76  ALA76      -0.2715
     33  CB        -6.0830    3.7090    4.9360 C.3    76  ALA76       0.0334
     34  N         -6.3810    4.7000    2.0410 N.am   77  HIS77      -0.1973
     35  CA        -6.4170    4.2980    0.6380 C.3    77  HIS77       0.1656
     36  C         -5.0070    4.2840    0.0770 C.2    77  HIS77       0.2291
     37  O         -4.0830    4.8150    0.7040 O.2    77  HIS77      -0.2864
     38  CB        -7.3890    5.1590   -0.2060 C.3    77  HIS77       0.0771
     39  CG        -7.0880    6.6310   -0.2130 C.ar   77  HIS77       0.0820
     40  ND1       -8.0870    7.5830   -0.1860 N.ar   77  HIS77      -0.2267
     41  CD2       -5.9170    7.3190   -0.2470 C.ar   77  HIS77       0.1154
     42  CE1       -7.5460    8.7880   -0.2070 C.ar   77  HIS77       0.1986
     43  NE2       -6.2320    8.6590   -0.2490 N.ar   77  HIS77      -0.2212
     44  N         -8.9750    1.3230   15.0970 N.3   104  TYR104     -0.1241
     45  CA        -8.6550    0.3880   14.0110 C.3   104  TYR104      0.1605
     46  C         -7.1810    0.0320   14.1000 C.2   104  TYR104      0.2264
     47  O         -6.3250    0.9040   14.3400 O.2   104  TYR104     -0.2867
     48  CB        -8.9620    1.0160   12.6460 C.3   104  TYR104      0.0534
     49  CG       -10.4280    1.3010   12.4740 C.ar  104  TYR104     -0.0201
     50  CD1      -11.3000    0.2940   12.0410 C.ar  104  TYR104     -0.0009
     51  CD2      -10.9610    2.5580   12.7850 C.ar  104  TYR104     -0.0009
     52  CE1      -12.6690    0.5380   11.8890 C.ar  104  TYR104      0.0417
     53  CE2      -12.3270    2.8110   12.6550 C.ar  104  TYR104      0.0417
     54  CZ       -13.1740    1.8020   12.1980 C.ar  104  TYR104      0.1957
     55  OH       -14.5270    2.0470   12.0500 O.3   104  TYR104     -0.2866
     56  N         -2.9790   -3.9930   10.4110 N.3   108  LEU108     -0.1231
     57  CA        -3.8920   -4.6640    9.4790 C.3   108  LEU108      0.1693
     58  C         -4.3460   -3.7420    8.3510 C.2   108  LEU108      0.2591
     59  O         -4.4240   -4.1610    7.1900 O.2   108  LEU108     -0.2718
     60  CB        -5.1110   -5.2220   10.2130 C.3   108  LEU108      0.0284
     61  CG        -4.8210   -6.3890   11.1590 C.3   108  LEU108      0.0019
     62  CD1       -6.0870   -6.7380   11.9210 C.3   108  LEU108      0.0001
     63  CD2       -4.3070   -7.6150   10.4200 C.3   108  LEU108      0.0001
     64  N         -4.6670   -2.4900    8.6970 N.am  109  VAL109     -0.1980
     65  CA        -5.0410   -1.5200    7.6620 C.3   109  VAL109      0.1595
     66  C         -3.8780   -1.2870    6.6850 C.2   109  VAL109      0.2287
     67  O         -4.0660   -1.3480    5.4660 O.2   109  VAL109     -0.2864
     68  CB        -5.5700   -0.2030    8.2600 C.3   109  VAL109      0.0276
     69  CG1       -5.8380    0.8340    7.1680 C.3   109  VAL109      0.0022
     70  CG2       -6.8480   -0.4690    9.0730 C.3   109  VAL109      0.0022
     71  N         -3.4310   -4.1650    4.1840 N.3   112  HIS112     -0.1226
     72  CA        -4.4150   -4.0770    3.0960 C.3   112  HIS112      0.1752
     73  C         -3.9860   -3.0180    2.0730 C.2   112  HIS112      0.2595
     74  O         -3.9370   -3.2870    0.8660 O.2   112  HIS112     -0.2718
     75  CB        -5.8090   -3.7620    3.6650 C.3   112  HIS112      0.0759
     76  CG        -6.8520   -3.4600    2.6260 C.ar  112  HIS112      0.0818
     77  ND1       -7.8250   -4.3690    2.2580 N.ar  112  HIS112     -0.2268
     78  CD2       -7.0860   -2.3440    1.8940 C.ar  112  HIS112      0.1154
     79  CE1       -8.6090   -3.8240    1.3440 C.ar  112  HIS112      0.1986
     80  NE2       -8.1790   -2.5980    1.1010 N.ar  112  HIS112     -0.2212
     81  N         -3.6850   -1.8100    2.5460 N.am  113  GLU113     -0.1979
     82  CA        -3.3040   -0.7450    1.6280 C.3   113  GLU113      0.1602
     83  C         -2.0810   -1.1110    0.8050 C.2   113  GLU113      0.2287
     84  O         -2.0290   -0.8170   -0.3920 O.2   113  GLU113     -0.2864
     85  CB        -3.0770    0.5730    2.3580 C.3   113  GLU113      0.0415
     86  CG        -4.2590    1.0370    3.1980 C.3   113  GLU113      0.1163
     87  CD        -5.5890    0.9740    2.4780 C.2   113  GLU113      0.3649
     88  OE1       -5.6350    1.1620    1.2410 O.co2 113  GLU113     -0.2457
     89  OE2       -6.6020    0.7470    3.1710 O.co2 113  GLU113     -0.2457
     90  N         -2.6870   -2.8720   -2.4240 N.3   116  HIS116     -0.1241
     91  CA        -2.9360   -1.9590   -3.5390 C.3   116  HIS116      0.1621
     92  C         -1.6270   -1.3470   -4.0710 C.2   116  HIS116      0.2264
     93  O         -1.4080   -1.2760   -5.2910 O.2   116  HIS116     -0.2867
     94  CB        -3.8940   -0.8380   -3.1370 C.3   116  HIS116      0.0745
     95  CG        -5.2760   -1.2950   -2.7770 C.ar  116  HIS116      0.0817
     96  ND1       -6.0310   -2.1390   -3.5690 N.ar  116  HIS116     -0.2268
     97  CD2       -6.0600   -0.9670   -1.7250 C.ar  116  HIS116      0.1154
     98  CE1       -7.2110   -2.3310   -2.9990 C.ar  116  HIS116      0.1986
     99  NE2       -7.2540   -1.6270   -1.8830 N.ar  116  HIS116     -0.2212
    100  N         -9.3430   -5.3180   -4.8940 N.3   122  HIS122     -0.1241
    101  CA       -10.0980   -5.9760   -3.8350 C.3   122  HIS122      0.1621
    102  C        -10.4580   -7.4010   -4.2030 C.2   122  HIS122      0.2264
    103  O        -10.6250   -7.7340   -5.3920 O.2   122  HIS122     -0.2867
    104  CB       -11.3580   -5.1900   -3.4650 C.3   122  HIS122      0.0745
    105  CG       -11.0770   -3.9440   -2.6880 C.ar  122  HIS122      0.0817
    106  ND1      -11.8440   -2.8070   -2.8060 N.ar  122  HIS122     -0.2268
    107  CD2      -10.1100   -3.6540   -1.7840 C.ar  122  HIS122      0.1154
    108  CE1      -11.3650   -1.8680   -2.0100 C.ar  122  HIS122      0.1986
    109  NE2      -10.3130   -2.3570   -1.3750 N.ar  122  HIS122     -0.2212
    110  N         -7.3380  -10.6210    3.1490 N.3   129  LEU129     -0.1245
    111  CA        -6.8780   -9.3020    3.5650 C.3   129  LEU129      0.1561
    112  C         -7.3910   -8.2130    2.6130 C.2   129  LEU129      0.2260
    113  O         -7.7540   -7.1160    3.0420 O.2   129  LEU129     -0.2867
    114  CB        -5.3440   -9.2770    3.6140 C.3   129  LEU129      0.0270
    115  CG        -4.6710   -7.9660    3.9990 C.3   129  LEU129      0.0019
    116  CD1       -5.0820   -7.5180    5.4120 C.3   129  LEU129      0.0001
    117  CD2       -3.1530   -8.1140    3.9030 C.3   129  LEU129      0.0001
    118  N        -10.1900   -8.0570    1.0280 N.3   131  TYR131     -0.1228
    119  CA       -11.6370   -7.8080    1.0740 C.3   131  TYR131      0.1721
    120  C        -11.8660   -6.3100    1.3430 C.2   131  TYR131      0.2437
    121  O        -11.0870   -5.6860    2.0690 O.2   131  TYR131     -0.2733
    122  CB       -12.2690   -8.6720    2.1660 C.3   131  TYR131      0.0547
    123  CG       -13.7780   -8.7920    2.1040 C.ar  131  TYR131     -0.0200
    124  CD1      -14.4050   -9.4570    1.0480 C.ar  131  TYR131     -0.0009
    125  CD2      -14.5810   -8.2710    3.1260 C.ar  131  TYR131     -0.0009
    126  CE1      -15.7950   -9.5780    0.9950 C.ar  131  TYR131      0.0417
    127  CE2      -15.9830   -8.3900    3.0800 C.ar  131  TYR131      0.0417
    128  CZ       -16.5740   -9.0430    2.0150 C.ar  131  TYR131      0.1957
    129  OH       -17.9500   -9.1650    1.9840 O.3   131  TYR131     -0.2866
    130  N        -12.9050   -5.7100    0.7280 N.am  132  PRO132     -0.2718
    131  CA       -13.1000   -4.2660    0.8540 C.3   132  PRO132      0.1535
    132  C        -13.3310   -3.7060    2.2590 C.2   132  PRO132      0.2599
    133  O        -13.0160   -2.5300    2.4970 O.2   132  PRO132     -0.2715
    134  CB       -14.3390   -4.0040   -0.0190 C.3   132  PRO132      0.0310
    135  CG       -14.3770   -5.1310   -0.9700 C.3   132  PRO132      0.0237
    136  CD       -13.8860   -6.3100   -0.1920 C.3   132  PRO132      0.0939
    137  N        -13.8820   -4.5230    3.1610 N.am  133  ASN133     -0.1959
    138  CA       -14.2700   -4.0830    4.5040 C.3   133  ASN133      0.1819
    139  C        -13.3490   -4.6250    5.5880 C.2   133  ASN133      0.2621
    140  O        -12.9920   -5.7980    5.5720 O.2   133  ASN133     -0.2715
    141  CB       -15.7150   -4.5050    4.8200 C.3   133  ASN133      0.1195
    142  CG       -16.7520   -3.8600    3.8950 C.2   133  ASN133      0.2630
    143  OD1      -17.8240   -4.4360    3.6570 O.2   133  ASN133     -0.2716
    144  ND2      -16.4550   -2.6670    3.3960 N.am  133  ASN133     -0.0877
    145  N        -13.0200   -3.7730    6.5520 N.am  134  TYR134     -0.1974
    146  CA       -12.1470   -4.1290    7.6670 C.3   134  TYR134      0.1639
    147  C        -12.7980   -5.1260    8.6240 C.2   134  TYR134      0.2290
    148  O        -13.9730   -4.9790    8.9950 O.2   134  TYR134     -0.2864
    149  CB       -11.7890   -2.8520    8.4300 C.3   134  TYR134      0.0560
    150  CG       -11.0070   -3.0300    9.7140 C.ar  134  TYR134     -0.0198
    151  CD1      -11.6640   -3.1750   10.9400 C.ar  134  TYR134     -0.0009
    152  CD2       -9.6030   -3.0300    9.7110 C.ar  134  TYR134     -0.0009
    153  CE1      -10.9510   -3.3180   12.1270 C.ar  134  TYR134      0.0417
    154  CE2       -8.8790   -3.1700   10.9010 C.ar  134  TYR134      0.0417
    155  CZ        -9.5590   -3.3270   12.1020 C.ar  134  TYR134      0.1957
    156  OH        -8.8510   -3.4500   13.2830 O.3   134  TYR134     -0.2866
@<TRIPOS>BOND
     1   103   102    2
     2    93    92    2
     3   100   101    1
     4   102   101    1
     5    92    91    1
     6   101   104    1
     7    96    98   ar
     8    96    95   ar
     9    91    94    1
    10    91    90    1
    11   104   105    1
    12    94    95    1
    13    98    99   ar
    14   106   105   ar
    15   106   108   ar
    16    95    97   ar
    17   105   107   ar
    18   108   109   ar
    19    99    97   ar
    20   107   109   ar
    21   135   136    1
    22   135   134    1
    23    84    83    2
    24    43    41   ar
    25    43    42   ar
    26    41    39   ar
    27    39    38    1
    28    39    40   ar
    29    42    40   ar
    30    38    35    1
    31   136   130    1
    32   134   131    1
    33    36    35    1
    34    36    37    2
    35    35    34    1
    36   130   131    1
    37   130   120   am
    38    83    82    1
    39   131   132    1
    40    74    73    2
    41   126   124   ar
    42   126   128   ar
    43   118   119    1
    44   124   123   ar
    45   119   120    1
    46   119   122    1
    47    80    79   ar
    48    80    78   ar
    49    88    87   ar
    50   120   121    2
    51    79    77   ar
    52    20    18    1
    53    82    85    1
    54    82    81    1
    55    78    76   ar
    56   129   128    1
    57   128   127   ar
    58    34    31   am
    59    73    81   am
    60    73    72    1
    61   123   122    1
    62   123   125   ar
    63    77    76   ar
    64   132   133    2
    65   132   137   am
    66    85    86    1
    67    18    17    1
    68    87    89   ar
    69    87    86    1
    70    32    31    2
    71   112   113    2
    72   112   111    1
    73    76    75    1
    74    19    17    1
    75    31    30    1
    76   127   125   ar
    77    72    75    1
    78    72    71    1
    79   110   111    1
    80   137   138    1
    81   144   142   am
    82    17    14    1
    83   111   114    1
    84   114   115    1
    85   143   142    2
    86   142   141    1
    87   117   115    1
    88   115   116    1
    89    30    33    1
    90    30    29    1
    91   138   141    1
    92   138   139    1
    93    14    13    1
    94    14    15    1
    95    29    23   am
    96    13    11   am
    97    67    66    2
    98   140   139    2
    99   139   145   am
   100    15    21   am
   101    15    16    2
   102    21    22    1
   103    11    12    2
   104    11    10    1
   105    23    22    1
   106    23    24    2
   107   145   146    1
   108    66    65    1
   109    10     9    1
   110    22    25    1
   111    69    68    1
   112    59    58    2
   113    25    26    1
   114    65    68    1
   115    65    64    1
   116   146   149    1
   117   146   147    1
   118    26    27    1
   119    26    28    1
   120    68    70    1
   121     9     3   am
   122     4     3    2
   123    58    64   am
   124    58    57    1
   125   149   150    1
   126   147   148    2
   127     3     2    1
   128    57    60    1
   129    57    56    1
   130   152   150   ar
   131   152   154   ar
   132   150   151   ar
   133    60    61    1
   134     2     1    1
   135     2     5    1
   136    63    61    1
   137   154   155   ar
   138   151   153   ar
   139    61    62    1
   140     5     6    1
   141    52    50   ar
   142    52    54   ar
   143    50    49   ar
   144    55    54    1
   145   155   153   ar
   146   155   156    1
   147    54    53   ar
   148    49    48    1
   149    49    51   ar
   150    48    45    1
   151     6     7    2
   152     6     8   am
   153    53    51   ar
   154    45    46    1
   155    45    44    1
   156    46    47    2
