@<TRIPOS>MOLECULE
tmp/2oyfA00.pdb
 97 94 0 0 0
SMALL
GASTEIGER

@<TRIPOS>ATOM
      1  N        -16.4760   10.5370   -6.1520 N.3     2  LEU2       -0.1231
      2  CA       -17.1460    9.2400   -6.0590 C.3     2  LEU2        0.1693
      3  C        -16.2810    8.1950   -5.3830 C.2     2  LEU2        0.2591
      4  O        -16.7660    7.4260   -4.5580 O.2     2  LEU2       -0.2718
      5  CB       -17.5010    8.7660   -7.4660 C.3     2  LEU2        0.0284
      6  CG       -18.4620    7.6090   -7.7180 C.3     2  LEU2        0.0019
      7  CD1      -19.8020    8.1580   -8.0660 C.3     2  LEU2        0.0001
      8  CD2      -17.9840    6.8060   -8.8840 C.3     2  LEU2        0.0001
      9  N        -15.0030    8.1480   -5.7330 N.am    3  LEU3       -0.1980
     10  CA       -14.0880    7.1900   -5.1110 C.3     3  LEU3        0.1596
     11  C        -13.9040    7.4480   -3.6180 C.2     3  LEU3        0.2287
     12  O        -13.8460    6.5000   -2.8290 O.2     3  LEU3       -0.2864
     13  CB       -12.7380    7.1880   -5.8250 C.3     3  LEU3        0.0297
     14  CG       -12.6670    6.4700   -7.1740 C.3     3  LEU3        0.0022
     15  CD1      -11.2620    6.5750   -7.7160 C.3     3  LEU3        0.0001
     16  CD2      -13.0630    5.0120   -7.0550 C.3     3  LEU3        0.0001
     17  N        -16.1220    8.9770   -1.6540 N.3     5  PHE5       -0.1227
     18  CA       -17.3880    8.5750   -1.0640 C.3     5  PHE5        0.1736
     19  C        -17.3800    7.0640   -0.8440 C.2     5  PHE5        0.2596
     20  O        -17.8010    6.5720    0.2030 O.2     5  PHE5       -0.2718
     21  CB       -18.5400    8.9950   -1.9870 C.3     5  PHE5        0.0547
     22  CG       -19.9280    8.7070   -1.4680 C.ar    5  PHE5       -0.0202
     23  CD1      -20.2750    8.8530   -0.1210 C.ar    5  PHE5       -0.0042
     24  CD2      -20.9080    8.3450   -2.3620 C.ar    5  PHE5       -0.0042
     25  CE1      -21.5680    8.6110    0.3000 C.ar    5  PHE5       -0.0003
     26  CE2      -22.1940    8.1050   -1.9420 C.ar    5  PHE5       -0.0003
     27  CZ       -22.5220    8.2460   -0.5990 C.ar    5  PHE5       -0.0000
     28  N        -16.8980    6.3270   -1.8320 N.am    6  GLY6       -0.1957
     29  CA       -16.8350    4.8670   -1.7440 C.3     6  GLY6        0.1869
     30  C        -15.9510    4.4080   -0.6020 C.2     6  GLY6        0.2309
     31  O        -16.2810    3.4450    0.1100 O.2     6  GLY6       -0.2863
     32  N        -17.8510    5.0960    2.6260 N.3     9  ILE9       -0.1245
     33  CA       -18.8760    4.0830    2.7990 C.3     9  ILE9        0.1561
     34  C        -18.2750    2.7950    3.3640 C.2     9  ILE9        0.2260
     35  O        -18.8220    2.1950    4.3090 O.2     9  ILE9       -0.2867
     36  CB       -19.5790    3.7900    1.4650 C.3     9  ILE9        0.0252
     37  CG1      -20.4250    4.9840    1.0400 C.3     9  ILE9        0.0019
     38  CG2      -20.4840    2.5710    1.5780 C.3     9  ILE9        0.0019
     39  CD1      -20.8640    4.9280   -0.4010 C.3     9  ILE9        0.0001
     40  N        -18.6960   -0.0780   -1.5950 N.3    17  ALA17      -0.1231
     41  CA       -19.6710    0.7850   -2.2510 C.3    17  ALA17       0.1694
     42  C        -20.1780    0.1360   -3.5340 C.2    17  ALA17       0.2591
     43  O        -21.3670    0.1400   -3.8100 O.2    17  ALA17      -0.2718
     44  CB       -19.0610    2.1530   -2.5400 C.3    17  ALA17       0.0304
     45  N        -19.2460   -0.3900   -4.3310 N.am   18  ILE18      -0.1980
     46  CA       -19.5570   -1.2590   -5.4630 C.3    18  ILE18       0.1595
     47  C        -19.2270   -2.6760   -4.9770 C.2    18  ILE18       0.2287
     48  O        -18.0670   -2.9630   -4.7000 O.2    18  ILE18      -0.2864
     49  CB       -18.6860   -0.9220   -6.7000 C.3    18  ILE18       0.0276
     50  CG1      -18.8370    0.5560   -7.0760 C.3    18  ILE18       0.0022
     51  CG2      -19.0610   -1.8140   -7.8910 C.3    18  ILE18       0.0022
     52  CD1      -17.8740    1.0570   -8.1270 C.3    18  ILE18       0.0001
     53  N        -23.8000   -0.5790   -2.6750 N.3    21  TYR21      -0.1227
     54  CA       -24.5640    0.6720   -2.7150 C.3    21  TYR21       0.1736
     55  C        -24.5580    1.3650   -4.0880 C.2    21  TYR21       0.2596
     56  O        -25.0080    2.5090   -4.2180 O.2    21  TYR21      -0.2718
     57  CB       -24.0340    1.6530   -1.6790 C.3    21  TYR21       0.0548
     58  CG       -24.2200    1.2040   -0.2580 C.ar   21  TYR21      -0.0200
     59  CD1      -25.4350    1.3790    0.4000 C.ar   21  TYR21      -0.0009
     60  CD2      -23.1770    0.6400    0.4510 C.ar   21  TYR21      -0.0009
     61  CE1      -25.6010    0.9760    1.7220 C.ar   21  TYR21       0.0417
     62  CE2      -23.3300    0.2550    1.7550 C.ar   21  TYR21       0.0417
     63  CZ       -24.5480    0.4190    2.3900 C.ar   21  TYR21       0.1957
     64  OH       -24.6890    0.0240    3.7000 O.3    21  TYR21      -0.2866
     65  N        -24.0650    0.6860   -5.1190 N.am   22  SER22      -0.1952
     66  CA       -23.9370    1.2740   -6.4570 C.3    22  SER22       0.1924
     67  C        -25.1720    1.0580   -7.3240 C.2    22  SER22       0.2314
     68  O        -25.3150    1.7090   -8.3590 O.2    22  SER22      -0.2863
     69  CB       -22.7190    0.6750   -7.1770 C.3    22  SER22       0.2116
     70  OG       -22.7580   -0.7330   -7.1350 O.3    22  SER22      -0.2180
     71  N        -26.7900    4.9090   -6.5360 N.3    29  GLY29      -0.1210
     72  CA       -25.9490    4.5530   -7.6580 C.3    29  GLY29       0.1956
     73  C        -26.4190    5.0530   -8.9990 C.2    29  GLY29       0.2611
     74  O        -25.6380    5.0660   -9.9410 O.2    29  GLY29      -0.2717
     75  N        -27.6850    5.4420   -9.1140 N.am   30  TRP30      -0.1976
     76  CA       -28.1410    6.1060  -10.3340 C.3    30  TRP30       0.1640
     77  C        -29.3130    7.0770  -10.1360 C.2    30  TRP30       0.2290
     78  O        -29.5130    7.9690  -10.9640 O.2    30  TRP30      -0.2864
     79  CB       -28.4550    5.0880  -11.4350 C.3    30  TRP30       0.0576
     80  CG       -27.7000    5.3460  -12.7180 C.ar   30  TRP30       0.0006
     81  CD1      -26.3480    5.4990  -12.8530 C.ar   30  TRP30       0.0946
     82  CD2      -28.2450    5.4740  -14.0370 C.ar   30  TRP30       0.0152
     83  NE1      -26.0190    5.7230  -14.1610 N.ar   30  TRP30      -0.2442
     84  CE2      -27.1630    5.7110  -14.9120 C.ar   30  TRP30       0.0810
     85  CE3      -29.5400    5.4170  -14.5660 C.ar   30  TRP30       0.0012
     86  CZ2      -27.3340    5.8860  -16.2830 C.ar   30  TRP30       0.0191
     87  CZ3      -29.7080    5.5930  -15.9310 C.ar   30  TRP30       0.0001
     88  CH2      -28.6120    5.8260  -16.7710 C.ar   30  TRP30       0.0015
     89  N        -19.0380   14.1730   -8.4500 N.3    60  LYS60      -0.1245
     90  CA       -18.4570   12.9030   -8.8920 C.3    60  LYS60       0.1561
     91  C        -16.9450   12.9350   -8.9120 C.2    60  LYS60       0.2260
     92  O        -16.3030   11.9310   -8.6230 O.2    60  LYS60      -0.2867
     93  CB       -18.9780   12.5170  -10.2870 C.3    60  LYS60       0.0271
     94  CG       -20.4460   12.1550  -10.3090 C.3    60  LYS60       0.0035
     95  CD       -20.8900   11.7880  -11.7150 C.3    60  LYS60       0.0206
     96  CE       -22.3320   11.3290  -11.7540 C.3    60  LYS60       0.1093
     97  NZ       -22.6110   10.0950  -12.5330 N.3    60  LYS60      -0.1314
@<TRIPOS>BOND
     1    88    86   ar
     2    88    87   ar
     3    86    84   ar
     4    87    85   ar
     5    84    83   ar
     6    84    82   ar
     7    85    82   ar
     8    83    81   ar
     9    82    80   ar
    10    81    80   ar
    11    80    79    1
    12    97    96    1
    13    96    95    1
    14    95    94    1
    15    79    76    1
    16    78    77    2
    17    76    77    1
    18    76    75    1
    19    94    93    1
    20    93    90    1
    21    74    73    2
    22    75    73   am
    23    73    72    1
    24    91    90    1
    25    91    92    2
    26    90    89    1
    27     8     6    1
    28    68    67    2
    29    52    50    1
    30     7     6    1
    31    51    49    1
    32     6     5    1
    33    15    14    1
    34    72    71    1
    35     5     2    1
    36    67    66    1
    37    69    70    1
    38    69    66    1
    39    14    16    1
    40    14    13    1
    41    50    49    1
    42    49    46    1
    43    66    65    1
    44     1     2    1
    45     2     3    1
    46    13    10    1
    47     9     3   am
    48     9    10    1
    49    46    47    1
    50    46    45    1
    51     3     4    2
    52    65    55   am
    53    10    11    1
    54    47    48    2
    55    45    42   am
    56    56    55    2
    57    55    54    1
    58    43    42    2
    59    11    12    2
    60    42    41    1
    61    54    53    1
    62    54    57    1
    63    44    41    1
    64    24    26   ar
    65    24    22   ar
    66    41    40    1
    67    21    22    1
    68    21    18    1
    69    26    27   ar
    70    28    29    1
    71    28    19   am
    72    29    30    1
    73    57    58    1
    74    17    18    1
    75    22    23   ar
    76    18    19    1
    77    19    20    2
    78    30    31    2
    79    27    25   ar
    80    39    37    1
    81    58    59   ar
    82    58    60   ar
    83    23    25   ar
    84    59    61   ar
    85    60    62   ar
    86    37    36    1
    87    36    38    1
    88    36    33    1
    89    61    63   ar
    90    62    63   ar
    91    63    64    1
    92    32    33    1
    93    33    34    1
    94    34    35    2
