@<TRIPOS>MOLECULE
tmp/2oyhC00.pdb
 151 146 0 0 0
SMALL
GASTEIGER

@<TRIPOS>ATOM
      1  N         39.7750    7.0460   76.9230 N.3   200  PHE200     -0.1241
      2  CA        40.4250    6.0200   76.1290 C.3   200  PHE200      0.1605
      3  C         41.5150    5.2930   76.9080 C.2   200  PHE200      0.2264
      4  O         42.0950    4.3230   76.4180 O.2   200  PHE200     -0.2867
      5  CB        41.0000    6.6400   74.8540 C.3   200  PHE200      0.0534
      6  CG        39.9670    6.9080   73.7930 C.ar  200  PHE200     -0.0203
      7  CD1       39.3560    5.8540   73.1180 C.ar  200  PHE200     -0.0042
      8  CD2       39.5980    8.2120   73.4720 C.ar  200  PHE200     -0.0042
      9  CE1       38.3930    6.0950   72.1360 C.ar  200  PHE200     -0.0003
     10  CE2       38.6350    8.4610   72.4920 C.ar  200  PHE200     -0.0003
     11  CZ        38.0320    7.4000   71.8240 C.ar  200  PHE200     -0.0000
     12  N         44.2400    6.4800   77.5520 N.3   202  ASP202     -0.1225
     13  CA        45.4940    7.0070   77.0160 C.3   202  ASP202      0.1805
     14  C         46.1850    7.9440   78.0030 C.2   202  ASP202      0.2597
     15  O         47.4150    7.9860   78.0760 O.2   202  ASP202     -0.2718
     16  CB        45.2330    7.7730   75.7110 C.3   202  ASP202      0.1424
     17  CG        44.8890    6.8590   74.5480 C.2   202  ASP202      0.3668
     18  OD1       44.0390    5.9610   74.7270 O.co2 202  ASP202     -0.2456
     19  OD2       45.4620    7.0470   73.4500 O.co2 202  ASP202     -0.2456
     20  N         45.3860    8.7000   78.7520 N.am  203  ALA203     -0.1979
     21  CA        45.9130    9.6480   79.7270 C.3   203  ALA203      0.1597
     22  C         44.8350   10.0220   80.7430 C.2   203  ALA203      0.2287
     23  O         43.7130    9.5130   80.6850 O.2   203  ALA203     -0.2864
     24  CB        46.4220   10.8990   79.0080 C.3   203  ALA203      0.0319
     25  N         43.4190   12.7640   80.9370 N.3   205  SER205     -0.1202
     26  CA        42.5440   13.7280   80.2800 C.3   205  SER205      0.2020
     27  C         42.0230   13.2850   78.9070 C.2   205  SER205      0.2618
     28  O         41.7310   14.1220   78.0470 O.2   205  SER205     -0.2717
     29  CB        43.2860   15.0550   80.1430 C.3   205  SER205      0.2103
     30  OG        44.5790   14.8380   79.6040 O.3   205  SER205     -0.2182
     31  N         41.9070   11.9750   78.7020 N.am  206  ALA206     -0.1979
     32  CA        41.4050   11.4510   77.4370 C.3   206  ALA206      0.1597
     33  C         39.9740   11.9400   77.2530 C.2   206  ALA206      0.2287
     34  O         39.5660   12.2900   76.1490 O.2   206  ALA206     -0.2864
     35  CB        41.4430    9.9270   77.4410 C.3   206  ALA206      0.0319
     36  N         39.9580   15.7360   76.1340 N.3   209  PHE209     -0.1227
     37  CA        40.5030   15.9350   74.7960 C.3   209  PHE209      0.1736
     38  C         39.8250   15.2210   73.6370 C.2   209  PHE209      0.2596
     39  O         40.2620   15.3430   72.4920 O.2   209  PHE209     -0.2718
     40  CB        42.0010   15.6340   74.8000 C.3   209  PHE209      0.0547
     41  CG        42.8050   16.6740   75.5190 C.ar  209  PHE209     -0.0202
     42  CD1       42.7380   18.0100   75.1210 C.ar  209  PHE209     -0.0042
     43  CD2       43.5780   16.3400   76.6260 C.ar  209  PHE209     -0.0042
     44  CE1       43.4280   18.9990   75.8190 C.ar  209  PHE209     -0.0003
     45  CE2       44.2700   17.3220   77.3310 C.ar  209  PHE209     -0.0003
     46  CZ        44.1950   18.6540   76.9290 C.ar  209  PHE209     -0.0000
     47  N         38.7590   14.4830   73.9270 N.am  210  THR210     -0.1953
     48  CA        38.0130   13.8000   72.8830 C.3   210  THR210      0.1897
     49  C         36.5410   14.2250   72.9540 C.2   210  THR210      0.2313
     50  O         35.6630   13.5710   72.3860 O.2   210  THR210     -0.2863
     51  CB        38.1360   12.2530   72.9860 C.3   210  THR210      0.1794
     52  OG1       37.6450   11.8020   74.2530 O.3   210  THR210     -0.2208
     53  CG2       39.5840   11.8300   72.8150 C.3   210  THR210      0.0378
     54  N         45.0810   20.3760   68.9020 N.3   227  PHE227     -0.1241
     55  CA        46.1940   19.4500   68.7510 C.3   227  PHE227      0.1605
     56  C         47.2910   20.1580   67.9620 C.2   227  PHE227      0.2264
     57  O         47.0090   20.8920   67.0150 O.2   227  PHE227     -0.2867
     58  CB        45.7000   18.2010   68.0130 C.3   227  PHE227      0.0534
     59  CG        46.7570   17.1600   67.7660 C.ar  227  PHE227     -0.0203
     60  CD1       47.5870   16.7230   68.7910 C.ar  227  PHE227     -0.0042
     61  CD2       46.8840   16.5720   66.5060 C.ar  227  PHE227     -0.0042
     62  CE1       48.5270   15.7160   68.5680 C.ar  227  PHE227     -0.0003
     63  CE2       47.8190   15.5630   66.2710 C.ar  227  PHE227     -0.0003
     64  CZ        48.6410   15.1340   67.3030 C.ar  227  PHE227     -0.0000
     65  N         44.4450   16.9710   63.1250 N.3   231  CYS231     -0.1235
     66  CA        43.4970   15.8640   63.2040 C.3   231  CYS231      0.1677
     67  C         42.8180   15.5760   61.8690 C.2   231  CYS231      0.2270
     68  O         42.9140   14.4670   61.3380 O.2   231  CYS231     -0.2867
     69  CB        42.4190   16.1430   64.2580 C.3   231  CYS231      0.0956
     70  SG        42.9640   16.2200   66.0000 S.3   231  CYS231     -0.0801
     71  N         45.1400   13.9380   59.4420 N.3   234  GLN234     -0.1231
     72  CA        45.5820   12.5880   59.7560 C.3   234  GLN234      0.1698
     73  C         44.4520   11.5940   59.5550 C.2   234  GLN234      0.2592
     74  O         44.6630   10.5220   59.0000 O.2   234  GLN234     -0.2718
     75  CB        46.0890   12.4970   61.1950 C.3   234  GLN234      0.0381
     76  CG        47.2500   13.4090   61.5070 C.3   234  GLN234      0.0905
     77  CD        47.8110   13.1540   62.8880 C.2   234  GLN234      0.2608
     78  OE1       47.0740   12.8140   63.8150 O.2   234  GLN234     -0.2717
     79  NE2       49.1180   13.3270   63.0370 N.am  234  GLN234     -0.0878
     80  N         43.2520   11.9480   60.0050 N.am  235  ASP235     -0.1974
     81  CA        42.1110   11.0550   59.8570 C.3   235  ASP235      0.1709
     82  C         41.4010   11.2340   58.5180 C.2   235  ASP235      0.2293
     83  O         40.4410   10.5270   58.2270 O.2   235  ASP235     -0.2864
     84  CB        41.1180   11.2440   61.0130 C.3   235  ASP235      0.1436
     85  CG        41.7190   10.8830   62.3730 C.2   235  ASP235      0.3671
     86  OD1       42.5020    9.9100   62.4520 O.co2 235  ASP235     -0.2456
     87  OD2       41.3980   11.5630   63.3720 O.co2 235  ASP235     -0.2456
     88  N         41.2040   16.6260   70.1220 N.3   243  LYS243     -0.1231
     89  CA        42.5560   16.0570   70.1430 C.3   243  LYS243      0.1693
     90  C         42.5670   14.5420   70.4070 C.2   243  LYS243      0.2592
     91  O         43.1650   14.0880   71.3800 O.2   243  LYS243     -0.2718
     92  CB        43.4270   16.7750   71.1910 C.3   243  LYS243      0.0285
     93  CG        44.8410   16.1920   71.3500 C.3   243  LYS243      0.0035
     94  CD        45.8520   17.2090   71.8840 C.3   243  LYS243      0.0206
     95  CE        45.5810   17.6500   73.3230 C.3   243  LYS243      0.1093
     96  NZ        45.9080   16.6010   74.3270 N.3   243  LYS243     -0.1314
     97  N         41.9100   13.7590   69.5510 N.am  244  CYS244     -0.1956
     98  CA        41.1880   14.2750   68.3930 C.3   244  CYS244      0.1843
     99  C         39.6760   14.0610   68.4500 C.2   244  CYS244      0.2625
    100  O         38.9230   14.9990   68.2170 O.2   244  CYS244     -0.2714
    101  CB        41.7240   13.6540   67.0990 C.3   244  CYS244      0.0997
    102  SG        43.3360   14.2840   66.5270 S.3   244  CYS244     -0.0797
    103  N         39.2240   12.8430   68.7550 N.am  245  HIS245     -0.1973
    104  CA        37.7830   12.5890   68.7970 C.3   245  HIS245      0.1656
    105  C         37.2960   11.3220   69.4930 C.2   245  HIS245      0.2291
    106  O         38.0440   10.3680   69.6900 O.2   245  HIS245     -0.2864
    107  CB        37.2260   12.6140   67.3710 C.3   245  HIS245      0.0771
    108  CG        37.9570   11.7150   66.4210 C.ar  245  HIS245      0.0820
    109  ND1       37.7880   10.3470   66.4080 N.ar  245  HIS245     -0.2267
    110  CD2       38.8830   11.9870   65.4710 C.ar  245  HIS245      0.1154
    111  CE1       38.5770    9.8160   65.4910 C.ar  245  HIS245      0.1986
    112  NE2       39.2530   10.7900   64.9090 N.ar  245  HIS245     -0.2212
    113  N         46.4700    5.6800   63.2180 N.3   268  TYR268     -0.1227
    114  CA        45.3620    6.1680   64.0330 C.3   268  TYR268      0.1736
    115  C         43.9890    5.6920   63.5690 C.2   268  TYR268      0.2595
    116  O         43.8090    5.2900   62.4220 O.2   268  TYR268     -0.2718
    117  CB        45.3850    7.6960   64.0750 C.3   268  TYR268      0.0548
    118  CG        46.6160    8.2680   64.7390 C.ar  268  TYR268     -0.0200
    119  CD1       46.8860    8.0150   66.0860 C.ar  268  TYR268     -0.0009
    120  CD2       47.5120    9.0650   64.0240 C.ar  268  TYR268     -0.0009
    121  CE1       48.0190    8.5420   66.7070 C.ar  268  TYR268      0.0417
    122  CE2       48.6500    9.5970   64.6350 C.ar  268  TYR268      0.0417
    123  CZ        48.8960    9.3310   65.9770 C.ar  268  TYR268      0.1957
    124  OH        50.0100    9.8600   66.5910 O.3   268  TYR268     -0.2866
    125  N         43.0270    5.7420   64.4850 N.am  269  ASP269     -0.1974
    126  CA        41.6510    5.3320   64.2180 C.3   269  ASP269      0.1709
    127  C         40.9180    6.4500   63.4790 C.2   269  ASP269      0.2293
    128  O         40.5580    7.4700   64.0740 O.2   269  ASP269     -0.2864
    129  CB        40.9470    5.0270   65.5400 C.3   269  ASP269      0.1436
    130  CG        41.0660    6.1660   66.5400 C.2   269  ASP269      0.3671
    131  OD1       42.1980    6.6380   66.7730 O.co2 269  ASP269     -0.2456
    132  OD2       40.0330    6.5880   67.0990 O.co2 269  ASP269     -0.2456
    133  N         33.4850    6.1630   63.7240 N.3   273  ILE273     -0.1245
    134  CA        33.3320    5.6180   65.0660 C.3   273  ILE273      0.1561
    135  C         32.4800    6.4310   66.0360 C.2   273  ILE273      0.2260
    136  O         32.1910    7.6020   65.8130 O.2   273  ILE273     -0.2867
    137  CB        34.7140    5.4040   65.7130 C.3   273  ILE273      0.0252
    138  CG1       35.3060    6.7420   66.1400 C.3   273  ILE273      0.0019
    139  CG2       35.6580    4.7640   64.7110 C.3   273  ILE273      0.0019
    140  CD1       36.4770    6.6020   67.0870 C.3   273  ILE273      0.0001
    141  N         36.6590    2.0350   69.0760 N.3   280  ARG280     -0.1245
    142  CA        37.2200    2.9820   68.1240 C.3   280  ARG280      0.1563
    143  C         37.6260    2.2810   66.8270 C.2   280  ARG280      0.2260
    144  O         37.8330    2.9310   65.8030 O.2   280  ARG280     -0.2867
    145  CB        38.4420    3.6810   68.7230 C.3   280  ARG280      0.0307
    146  CG        39.5610    2.7280   69.0780 C.3   280  ARG280      0.0489
    147  CD        40.9080    3.4180   69.0730 C.3   280  ARG280      0.2205
    148  NE        40.9840    4.5080   70.0370 N.pl3 280  ARG280     -0.0865
    149  CZ        42.0720    5.2470   70.2260 C.cat 280  ARG280      0.5346
    150  NH1       43.1650    5.0030   69.5140 N.pl3 280  ARG280      0.1354
    151  NH2       42.0710    6.2300   71.1200 N.pl3 280  ARG280      0.1354
@<TRIPOS>BOND
     1    83    82    2
     2    82    81    1
     3    74    73    2
     4    71    72    1
     5    73    72    1
     6    73    80   am
     7    72    75    1
     8    81    80    1
     9    81    84    1
    10    84    85    1
    11    75    76    1
    12    68    67    2
    13    76    77    1
    14    67    66    1
    15    85    86   ar
    16    85    87   ar
    17   116   115    2
    18    77    79   am
    19    77    78    2
    20    65    66    1
    21    66    69    1
    22   113   114    1
    23   127   128    2
    24   127   126    1
    25   115   114    1
    26   115   125   am
    27   133   134    1
    28   120   122   ar
    29   120   118   ar
    30   114   117    1
    31   117   118    1
    32   126   125    1
    33   126   129    1
    34    69    70    1
    35   122   123   ar
    36   139   137    1
    37   118   119   ar
    38   112   110   ar
    39   112   111   ar
    40   134   137    1
    41   134   135    1
    42   110   108   ar
    43   111   109   ar
    44   129   130    1
    45   137   138    1
    46   144   143    2
    47   136   135    2
    48   123   124    1
    49   123   121   ar
    50    70   102    1
    51   119   121   ar
    52   138   140    1
    53    63    61   ar
    54    63    64   ar
    55   109   108   ar
    56   108   107    1
    57    61    59   ar
    58   102   101    1
    59   130   131   ar
    60   130   132   ar
    61   143   142    1
    62    57    56    2
    63   101    98    1
    64    64    62   ar
    65   107   104    1
    66    59    58    1
    67    59    60   ar
    68    56    55    1
    69    58    55    1
    70   142   145    1
    71   142   141    1
    72   100    99    2
    73    98    99    1
    74    98    97    1
    75    99   103   am
    76    62    60   ar
    77   145   146    1
    78    55    54    1
    79   103   104    1
    80   104   105    1
    81   147   146    1
    82   147   148    1
    83   105   106    2
    84   150   149    1
    85    97    90   am
    86   148   149    2
    87    88    89    1
    88    89    90    1
    89    89    92    1
    90   149   151    1
    91    90    91    2
    92    92    93    1
    93    93    94    1
    94    11     9   ar
    95    11    10   ar
    96    94    95    1
    97     9     7   ar
    98    50    49    2
    99    10     8   ar
   100    39    38    2
   101    53    51    1
   102    48    49    1
   103    48    51    1
   104    48    47    1
   105    51    52    1
   106     7     6   ar
   107    95    96    1
   108    19    17   ar
   109     8     6   ar
   110    38    47   am
   111    38    37    1
   112     6     5    1
   113    17    18   ar
   114    17    16    1
   115    37    40    1
   116    37    36    1
   117    40    41    1
   118     5     2    1
   119    42    41   ar
   120    42    44   ar
   121    41    43   ar
   122    16    13    1
   123    44    46   ar
   124     2     3    1
   125     2     1    1
   126    34    33    2
   127     4     3    2
   128    43    45   ar
   129    46    45   ar
   130    13    12    1
   131    13    14    1
   132    33    32    1
   133    32    35    1
   134    32    31    1
   135    14    15    2
   136    14    20   am
   137    28    27    2
   138    31    27   am
   139    20    21    1
   140    27    26    1
   141    24    21    1
   142    30    29    1
   143    21    22    1
   144    29    26    1
   145    26    25    1
   146    23    22    2
