@<TRIPOS>MOLECULE
tmp/2oykB00.pdb
 151 146 0 0 0
SMALL
GASTEIGER

@<TRIPOS>ATOM
      1  N          4.1800   46.1620   26.9490 N.3    21  SER21      -0.1217
      2  CA         4.3480   45.2490   28.0800 C.3    21  SER21       0.1889
      3  C          4.3530   43.7810   27.6250 C.2    21  SER21       0.2288
      4  O          5.0180   42.9430   28.2290 O.2    21  SER21      -0.2866
      5  CB         3.2640   45.4780   29.1420 C.3    21  SER21       0.2089
      6  OG         3.6470   44.9020   30.3850 O.3    21  SER21      -0.2183
      7  N          7.5840   41.7430   27.3080 N.3    24  LYS24      -0.1245
      8  CA         8.2510   41.2490   28.5120 C.3    24  LYS24       0.1561
      9  C          8.2980   39.7260   28.5840 C.2    24  LYS24       0.2260
     10  O          9.3230   39.1620   28.9550 O.2    24  LYS24      -0.2867
     11  CB         7.5390   41.7640   29.7630 C.3    24  LYS24       0.0271
     12  CG         7.6150   43.2590   29.9830 C.3    24  LYS24       0.0035
     13  CD         6.6700   43.6630   31.0900 C.3    24  LYS24       0.0206
     14  CE         6.7650   45.1400   31.4150 C.3    24  LYS24       0.1093
     15  NZ         5.7770   45.5070   32.4560 N.3    24  LYS24      -0.1314
     16  N         14.2990   47.3140   29.4310 N.3    93  HIS93      -0.1241
     17  CA        13.2220   47.2460   30.4050 C.3    93  HIS93       0.1621
     18  C         13.3770   46.0680   31.3460 C.2    93  HIS93       0.2264
     19  O         13.7400   44.9620   30.9280 O.2    93  HIS93      -0.2867
     20  CB        11.8750   47.1570   29.7020 C.3    93  HIS93       0.0745
     21  CG        10.7200   47.6070   30.5450 C.ar   93  HIS93       0.0817
     22  ND1       10.2330   48.8960   30.5020 N.ar   93  HIS93      -0.2268
     23  CD2        9.9540   46.9450   31.4430 C.ar   93  HIS93       0.1154
     24  CE1        9.2120   49.0080   31.3330 C.ar   93  HIS93       0.1986
     25  NE2        9.0200   47.8380   31.9160 N.ar   93  HIS93      -0.2212
     26  N         11.2890   44.6650   35.2420 N.3    95  ASP95      -0.1239
     27  CA        10.5150   44.8500   36.4690 C.3    95  ASP95       0.1674
     28  C         10.8640   43.6770   37.3770 C.2    95  ASP95       0.2266
     29  O         10.8630   42.5340   36.9350 O.2    95  ASP95      -0.2867
     30  CB         9.0040   44.8690   36.2140 C.3    95  ASP95       0.1410
     31  CG         8.5820   45.9380   35.2310 C.2    95  ASP95       0.3668
     32  OD1        8.5290   45.6310   34.0230 O.co2  95  ASP95      -0.2456
     33  OD2        8.2880   47.0770   35.6590 O.co2  95  ASP95      -0.2456
     34  N          5.7120   37.7510   32.5630 N.3   113  ALA113     -0.1231
     35  CA         4.5710   38.6660   32.5500 C.3   113  ALA113      0.1694
     36  C          4.6150   39.6420   33.7240 C.2   113  ALA113      0.2591
     37  O          4.1200   40.7690   33.6210 O.2   113  ALA113     -0.2718
     38  CB         3.2730   37.8770   32.5740 C.3   113  ALA113      0.0304
     39  N          5.1900   39.2020   34.8420 N.am  114  ILE114     -0.1980
     40  CA         5.3770   40.0560   36.0130 C.3   114  ILE114      0.1595
     41  C          6.8590   40.4190   36.1010 C.2   114  ILE114      0.2287
     42  O          7.2690   41.4320   35.5270 O.2   114  ILE114     -0.2864
     43  CB         4.8500   39.3740   37.2940 C.3   114  ILE114      0.0276
     44  CG1        3.3320   39.1890   37.1880 C.3   114  ILE114      0.0022
     45  CG2        5.2070   40.1990   38.5210 C.3   114  ILE114      0.0022
     46  CD1        2.7230   38.4350   38.3460 C.3   114  ILE114      0.0001
     47  N         10.5520   40.4740   34.9210 N.3   116  ASN116     -0.1240
     48  CA        11.1090   40.4380   33.5650 C.3   116  ASN116      0.1653
     49  C         12.3780   41.2760   33.4820 C.2   116  ASN116      0.2266
     50  O         12.5240   42.2430   34.2230 O.2   116  ASN116     -0.2867
     51  CB        10.0910   40.9670   32.5480 C.3   116  ASN116      0.1155
     52  CG         9.8390   42.4550   32.6930 C.2   116  ASN116      0.2627
     53  OD1       10.4630   43.2780   32.0070 O.2   116  ASN116     -0.2716
     54  ND2        8.9230   42.8130   33.5850 N.am  116  ASN116     -0.0877
     55  N          2.2060   42.7850   42.6530 N.3   136  TRP136     -0.1227
     56  CA         3.4850   42.4540   42.0330 C.3   136  TRP136      0.1737
     57  C          4.6510   43.3220   42.5170 C.2   136  TRP136      0.2595
     58  O          5.7840   42.8460   42.5990 O.2   136  TRP136     -0.2718
     59  CB         3.3970   42.4710   40.4960 C.3   136  TRP136      0.0564
     60  CG         3.2650   43.8240   39.8740 C.ar  136  TRP136      0.0003
     61  CD1        2.1100   44.4450   39.5160 C.ar  136  TRP136      0.0946
     62  CD2        4.3290   44.7150   39.5180 C.ar  136  TRP136      0.0152
     63  NE1        2.3820   45.6680   38.9620 N.ar  136  TRP136     -0.2442
     64  CE2        3.7380   45.8600   38.9470 C.ar  136  TRP136      0.0810
     65  CE3        5.7240   44.6580   39.6240 C.ar  136  TRP136      0.0012
     66  CZ2        4.4920   46.9460   38.4970 C.ar  136  TRP136      0.0191
     67  CZ3        6.4730   45.7350   39.1690 C.ar  136  TRP136      0.0001
     68  CH2        5.8510   46.8620   38.6100 C.ar  136  TRP136      0.0015
     69  N          4.3860   44.5840   42.8500 N.am  137  GLU137     -0.1979
     70  CA         5.4620   45.4810   43.2800 C.3   137  GLU137      0.1602
     71  C          6.1260   45.0050   44.5730 C.2   137  GLU137      0.2287
     72  O          7.2820   45.3260   44.8280 O.2   137  GLU137     -0.2864
     73  CB         4.9650   46.9170   43.4670 C.3   137  GLU137      0.0415
     74  CG         4.4430   47.5900   42.1940 C.3   137  GLU137      0.1163
     75  CD         2.9450   47.4320   41.9980 C.2   137  GLU137      0.3649
     76  OE1        2.3630   46.4580   42.5150 O.co2 137  GLU137     -0.2457
     77  OE2        2.3440   48.2830   41.3100 O.co2 137  GLU137     -0.2457
     78  N         15.0550   50.8280   32.8750 N.3   190  ASN190     -0.1225
     79  CA        13.7180   51.0820   33.3830 C.3   190  ASN190      0.1785
     80  C         13.6870   50.9790   34.8990 C.2   190  ASN190      0.2597
     81  O         14.1770   50.0010   35.4640 O.2   190  ASN190     -0.2718
     82  CB        12.7030   50.1030   32.8240 C.3   190  ASN190      0.1169
     83  CG        11.3210   50.3490   33.3710 C.2   190  ASN190      0.2627
     84  OD1       10.6980   51.3630   33.0560 O.2   190  ASN190     -0.2716
     85  ND2       10.8430   49.4510   34.2260 N.am  190  ASN190     -0.0877
     86  N         13.1100   51.9980   35.5340 N.am  191  GLU191     -0.1979
     87  CA        12.8270   52.0230   36.9760 C.3   191  GLU191      0.1602
     88  C         13.8960   51.3640   37.8450 C.2   191  GLU191      0.2287
     89  O         13.6380   50.3410   38.4970 O.2   191  GLU191     -0.2864
     90  CB        11.4250   51.4670   37.2380 C.3   191  GLU191      0.0415
     91  CG        10.3760   52.2950   36.5010 C.3   191  GLU191      0.1163
     92  CD         8.9390   52.0100   36.8880 C.2   191  GLU191      0.3649
     93  OE1        8.6530   50.9360   37.4690 O.co2 191  GLU191     -0.2457
     94  OE2        8.0800   52.8730   36.5900 O.co2 191  GLU191     -0.2457
     95  N          8.9920   58.3120   41.5600 N.3   237  ASN237     -0.1240
     96  CA         7.7440   58.1390   40.7900 C.3   237  ASN237      0.1653
     97  C          6.5580   58.8260   41.4590 C.2   237  ASN237      0.2266
     98  O          5.6220   59.2690   40.7900 O.2   237  ASN237     -0.2867
     99  CB         7.3760   56.6560   40.6240 C.3   237  ASN237      0.1155
    100  CG         8.0670   55.9840   39.4390 C.2   237  ASN237      0.2627
    101  OD1        8.9900   56.5210   38.8400 O.2   237  ASN237     -0.2716
    102  ND2        7.6130   54.7770   39.1170 N.am  237  ASN237     -0.0877
    103  N          3.8320   58.3680   38.7410 N.3   264  TYR264     -0.1241
    104  CA         2.8000   57.4680   39.2350 C.3   264  TYR264      0.1605
    105  C          2.3510   57.8950   40.6360 C.2   264  TYR264      0.2264
    106  O          2.8410   57.3770   41.6440 O.2   264  TYR264     -0.2867
    107  CB         3.3100   56.0270   39.2350 C.3   264  TYR264      0.0534
    108  CG         3.3470   55.4080   37.8550 C.ar  264  TYR264     -0.0201
    109  CD1        2.1670   55.0710   37.2010 C.ar  264  TYR264     -0.0009
    110  CD2        4.5570   55.1580   37.2060 C.ar  264  TYR264     -0.0009
    111  CE1        2.1830   54.5090   35.9320 C.ar  264  TYR264      0.0417
    112  CE2        4.5820   54.5910   35.9280 C.ar  264  TYR264      0.0417
    113  CZ         3.3900   54.2640   35.3080 C.ar  264  TYR264      0.1957
    114  OH         3.3860   53.6960   34.0530 O.3   264  TYR264     -0.2866
    115  N          7.1040   57.3130   31.3270 N.3   306  GLU306     -0.1245
    116  CA         5.8550   56.6300   31.6160 C.3   306  GLU306      0.1567
    117  C          4.9600   57.4580   32.5120 C.2   306  GLU306      0.2260
    118  O          5.4170   58.0640   33.4870 O.2   306  GLU306     -0.2867
    119  CB         6.0730   55.3250   32.3790 C.3   306  GLU306      0.0388
    120  CG         6.7500   54.1900   31.6580 C.3   306  GLU306      0.1160
    121  CD         6.7100   52.9200   32.4830 C.2   306  GLU306      0.3649
    122  OE1        5.7230   52.7400   33.2290 O.co2 306  GLU306     -0.2457
    123  OE2        7.6580   52.1160   32.3990 O.co2 306  GLU306     -0.2457
    124  N          2.0200   54.9740   29.2490 N.3   337  TRP337     -0.1241
    125  CA         2.0150   53.5500   29.5920 C.3   337  TRP337      0.1605
    126  C          0.5780   53.0310   29.5700 C.2   337  TRP337      0.2264
    127  O         -0.1810   53.3210   30.4900 O.2   337  TRP337     -0.2867
    128  CB         2.6160   53.2960   30.9870 C.3   337  TRP337      0.0550
    129  CG         2.6980   51.8290   31.2430 C.ar  337  TRP337      0.0003
    130  CD1        1.7610   51.0430   31.8500 C.ar  337  TRP337      0.0946
    131  CD2        3.7400   50.9570   30.8190 C.ar  337  TRP337      0.0152
    132  NE1        2.1720   49.7340   31.8490 N.ar  337  TRP337     -0.2442
    133  CE2        3.3850   49.6530   31.2190 C.ar  337  TRP337      0.0810
    134  CE3        4.9540   51.1520   30.1540 C.ar  337  TRP337      0.0012
    135  CZ2        4.2020   48.5510   30.9670 C.ar  337  TRP337      0.0191
    136  CZ3        5.7580   50.0640   29.9000 C.ar  337  TRP337      0.0001
    137  CH2        5.3830   48.7760   30.3100 C.ar  337  TRP337      0.0015
    138  N         -6.3470   50.8340   30.4470 N.3   344  TRP344     -0.1241
    139  CA        -5.2580   51.8200   30.5540 C.3   344  TRP344      0.1605
    140  C         -4.9090   52.3990   29.1890 C.2   344  TRP344      0.2264
    141  O         -4.5400   53.5690   29.0880 O.2   344  TRP344     -0.2867
    142  CB        -3.9800   51.2020   31.1220 C.3   344  TRP344      0.0550
    143  CG        -3.9500   50.9990   32.6000 C.ar  344  TRP344      0.0003
    144  CD1       -4.8930   50.3820   33.3720 C.ar  344  TRP344      0.0946
    145  CD2       -2.8950   51.3880   33.4850 C.ar  344  TRP344      0.0152
    146  NE1       -4.4920   50.3750   34.6880 N.ar  344  TRP344     -0.2442
    147  CE2       -3.2670   50.9840   34.7840 C.ar  344  TRP344      0.0810
    148  CE3       -1.6650   52.0390   33.3030 C.ar  344  TRP344      0.0012
    149  CZ2       -2.4560   51.2160   35.9020 C.ar  344  TRP344      0.0191
    150  CZ3       -0.8610   52.2710   34.4110 C.ar  344  TRP344      0.0001
    151  CH2       -1.2630   51.8610   35.6960 C.ar  344  TRP344      0.0015
@<TRIPOS>BOND
     1     1     2    1
     2     7     8    1
     3     3     2    1
     4     3     4    2
     5     2     5    1
     6     8     9    1
     7     8    11    1
     8     9    10    2
     9   141   140    2
    10     5     6    1
    11   140   139    1
    12   124   125    1
    13    16    17    1
    14   126   125    1
    15   126   127    2
    16   125   128    1
    17    20    17    1
    18    20    21    1
    19    11    12    1
    20   136   134   ar
    21   136   137   ar
    22    12    13    1
    23   134   131   ar
    24   137   135   ar
    25    17    18    1
    26   138   139    1
    27    22    21   ar
    28    22    24   ar
    29    21    23   ar
    30   139   142    1
    31   131   133   ar
    32   131   129   ar
    33    19    18    2
    34   135   133   ar
    35   128   129    1
    36    13    14    1
    37   142   143    1
    38   133   132   ar
    39   129   130   ar
    40   115   116    1
    41    24    25   ar
    42    14    15    1
    43    23    25   ar
    44   116   119    1
    45   116   117    1
    46   120   119    1
    47   120   121    1
    48   132   130   ar
    49    53    52    2
    50   123   121   ar
    51   121   122   ar
    52   117   118    2
    53    51    52    1
    54    51    48    1
    55    35    34    1
    56    35    38    1
    57    35    36    1
    58   143   144   ar
    59   143   145   ar
    60    52    54   am
    61    82    83    1
    62    82    79    1
    63    78    79    1
    64    84    83    2
    65   148   145   ar
    66   148   150   ar
    67    83    85   am
    68   144   146   ar
    69    79    80    1
    70    49    48    1
    71    49    50    2
    72   145   147   ar
    73    48    47    1
    74    37    36    2
    75    36    39   am
    76    32    31   ar
    77   114   113    1
    78   150   151   ar
    79   146   147   ar
    80   147   149   ar
    81    39    40    1
    82    80    81    2
    83    80    86   am
    84    31    33   ar
    85    31    30    1
    86    26    27    1
    87   113   112   ar
    88   113   111   ar
    89    42    41    2
    90    86    87    1
    91   151   149   ar
    92   112   110   ar
    93   111   109   ar
    94    40    41    1
    95    40    43    1
    96    30    27    1
    97    27    28    1
    98    91    92    1
    99    91    90    1
   100    94    92   ar
   101    92    93   ar
   102    29    28    2
   103    87    90    1
   104    87    88    1
   105    44    43    1
   106    44    46    1
   107   109   108   ar
   108   110   108   ar
   109    43    45    1
   110    88    89    2
   111   108   107    1
   112    66    68   ar
   113    66    64   ar
   114    68    67   ar
   115   103   104    1
   116   101   100    2
   117    64    63   ar
   118    64    62   ar
   119    63    61   ar
   120   102   100   am
   121    67    65   ar
   122   104   107    1
   123   104   105    1
   124   100    99    1
   125    61    60   ar
   126    62    65   ar
   127    62    60   ar
   128    60    59    1
   129    59    56    1
   130    99    96    1
   131   105   106    2
   132    96    97    1
   133    96    95    1
   134    98    97    2
   135    77    75   ar
   136    75    74    1
   137    75    76   ar
   138    56    57    1
   139    56    55    1
   140    74    73    1
   141    57    58    2
   142    57    69   am
   143    69    70    1
   144    70    73    1
   145    70    71    1
   146    71    72    2
