@<TRIPOS>MOLECULE
tmp/2oylA00.pdb
 146 141 0 0 0
SMALL
GASTEIGER

@<TRIPOS>ATOM
      1  N         27.8020   59.5150  -18.9940 N.3    21  SER21      -0.1217
      2  CA        28.6970   58.8000  -19.8890 C.3    21  SER21       0.1889
      3  C         29.9560   58.3360  -19.1580 C.2    21  SER21       0.2288
      4  O         30.4990   57.2790  -19.4720 O.2    21  SER21      -0.2866
      5  CB        29.0780   59.6650  -21.0900 C.3    21  SER21       0.2089
      6  OG        29.5490   58.8420  -22.1480 O.3    21  SER21      -0.2183
      7  N         30.5250   54.7000  -18.0400 N.3    24  LYS24      -0.1245
      8  CA        30.7890   53.6270  -19.0070 C.3    24  LYS24       0.1561
      9  C         32.1410   52.9430  -18.7840 C.2    24  LYS24       0.2260
     10  O         32.2490   51.7270  -18.9170 O.2    24  LYS24      -0.2867
     11  CB        30.7550   54.1800  -20.4260 C.3    24  LYS24       0.0271
     12  CG        29.3790   54.6540  -20.8800 C.3    24  LYS24       0.0035
     13  CD        29.5110   55.4790  -22.1390 C.3    24  LYS24       0.0206
     14  CE        28.1720   55.8630  -22.7280 C.3    24  LYS24       0.1093
     15  NZ        28.3910   56.7050  -23.9460 N.3    24  LYS24      -0.1314
     16  N         22.9070   50.4040  -20.2320 N.3    93  HIS93      -0.1241
     17  CA        23.5260   51.1420  -21.3170 C.3    93  HIS93       0.1621
     18  C         24.6430   50.3610  -21.9830 C.2    93  HIS93       0.2264
     19  O         25.4400   49.7010  -21.3170 O.2    93  HIS93      -0.2867
     20  CB        24.0620   52.4700  -20.8010 C.3    93  HIS93       0.0745
     21  CG        24.2500   53.4970  -21.8680 C.ar   93  HIS93       0.0817
     22  ND1       23.2770   54.4200  -22.2000 N.ar   93  HIS93      -0.2268
     23  CD2       25.2950   53.7390  -22.6920 C.ar   93  HIS93       0.1154
     24  CE1       23.7300   55.2030  -23.1600 C.ar   93  HIS93       0.1986
     25  NE2       24.9540   54.8120  -23.4760 N.ar   93  HIS93      -0.2212
     26  N         27.2440   50.9780  -25.7670 N.3    95  ASP95      -0.1239
     27  CA        27.5130   51.5140  -27.1060 C.3    95  ASP95       0.1674
     28  C         28.5500   50.6040  -27.7270 C.2    95  ASP95       0.2266
     29  O         29.5710   50.3220  -27.0960 O.2    95  ASP95      -0.2867
     30  CB        28.0690   52.9290  -27.0730 C.3    95  ASP95       0.1410
     31  CG        27.1780   53.8910  -26.3310 C.2    95  ASP95       0.3668
     32  OD1       27.3320   53.9820  -25.0960 O.co2  95  ASP95      -0.2456
     33  OD2       26.3340   54.5480  -26.9840 O.co2  95  ASP95      -0.2456
     34  N         36.6210   51.4820  -26.3330 N.3   105  ILE105     -0.1245
     35  CA        35.8180   52.1150  -27.3800 C.3   105  ILE105      0.1561
     36  C         34.3290   51.9420  -27.0540 C.2   105  ILE105      0.2260
     37  O         33.5950   52.9140  -26.8920 O.2   105  ILE105     -0.2867
     38  CB        36.1420   51.5380  -28.7730 C.3   105  ILE105      0.0252
     39  CG1       37.6390   51.7010  -29.0960 C.3   105  ILE105      0.0019
     40  CG2       35.3060   52.2360  -29.8480 C.3   105  ILE105      0.0019
     41  CD1       38.1070   53.1500  -29.1650 C.3   105  ILE105      0.0001
     42  N         31.1710   49.9300  -24.6640 N.3   107  ASN107     -0.1240
     43  CA        30.8340   49.7340  -23.2620 C.3   107  ASN107      0.1653
     44  C         29.5560   48.9110  -23.2050 C.2   107  ASN107      0.2266
     45  O         28.7840   48.9190  -24.1640 O.2   107  ASN107     -0.2867
     46  CB        30.6430   51.0810  -22.5540 C.3   107  ASN107      0.1155
     47  CG        29.4260   51.8590  -23.0640 C.2   107  ASN107      0.2627
     48  OD1       28.3260   51.7420  -22.5160 O.2   107  ASN107     -0.2716
     49  ND2       29.6170   52.6390  -24.1120 N.am  107  ASN107     -0.0877
     50  N         33.4620   56.9060  -33.4120 N.3   127  TRP127     -0.1227
     51  CA        33.0590   55.7610  -32.5840 C.3   127  TRP127      0.1737
     52  C         31.8930   54.9610  -33.1850 C.2   127  TRP127      0.2595
     53  O         31.8830   53.7310  -33.1170 O.2   127  TRP127     -0.2718
     54  CB        32.7510   56.1840  -31.1340 C.3   127  TRP127      0.0564
     55  CG        31.4720   56.9750  -30.9160 C.ar  127  TRP127      0.0003
     56  CD1       31.3520   58.3330  -30.8380 C.ar  127  TRP127      0.0946
     57  CD2       30.1580   56.4450  -30.6990 C.ar  127  TRP127      0.0152
     58  NE1       30.0440   58.6830  -30.6080 N.ar  127  TRP127     -0.2442
     59  CE2       29.2890   57.5430  -30.5170 C.ar  127  TRP127      0.0810
     60  CE3       29.6270   55.1470  -30.6510 C.ar  127  TRP127      0.0012
     61  CZ2       27.9180   57.3840  -30.3010 C.ar  127  TRP127      0.0191
     62  CZ3       28.2650   54.9920  -30.4330 C.ar  127  TRP127      0.0001
     63  CH2       27.4300   56.1010  -30.2580 C.ar  127  TRP127      0.0015
     64  N         30.9380   55.6560  -33.8040 N.am  128  GLU128     -0.1979
     65  CA        29.7570   55.0010  -34.3810 C.3   128  GLU128      0.1602
     66  C         30.0990   53.9740  -35.4560 C.2   128  GLU128      0.2287
     67  O         29.3740   52.9950  -35.6230 O.2   128  GLU128     -0.2864
     68  CB        28.7950   56.0280  -34.9840 C.3   128  GLU128      0.0415
     69  CG        28.1890   56.9940  -33.9780 C.3   128  GLU128      0.1163
     70  CD        28.9130   58.3240  -33.9140 C.2   128  GLU128      0.3649
     71  OE1       30.1430   58.3510  -34.1250 O.co2 128  GLU128     -0.2457
     72  OE2       28.2430   59.3390  -33.6410 O.co2 128  GLU128     -0.2457
     73  N         19.9820   50.4270  -24.1640 N.3   181  ASN181     -0.1225
     74  CA        20.3380   51.6030  -24.9400 C.3   181  ASN181      0.1785
     75  C         20.5800   51.2260  -26.3960 C.2   181  ASN181      0.2597
     76  O         21.2930   50.2530  -26.6840 O.2   181  ASN181     -0.2718
     77  CB        21.5930   52.2730  -24.4070 C.3   181  ASN181      0.1169
     78  CG        21.8970   53.5530  -25.1200 C.2   181  ASN181      0.2627
     79  OD1       21.1010   54.4810  -25.0800 O.2   181  ASN181     -0.2716
     80  ND2       23.0510   53.6180  -25.7930 N.am  181  ASN181     -0.0877
     81  N         19.9650   51.9960  -27.2900 N.am  182  GLU182     -0.1979
     82  CA        20.2280   51.9370  -28.7350 C.3   182  GLU182      0.1602
     83  C         20.4990   50.5300  -29.2680 C.2   182  GLU182      0.2287
     84  O         21.6140   50.2250  -29.7250 O.2   182  GLU182     -0.2864
     85  CB        21.3530   52.9080  -29.0900 C.3   182  GLU182      0.0415
     86  CG        21.0090   54.3390  -28.6630 C.3   182  GLU182      0.1163
     87  CD        21.6690   55.4260  -29.4850 C.2   182  GLU182      0.3649
     88  OE1       22.7750   55.1960  -30.0310 O.co2 182  GLU182     -0.2457
     89  OE2       21.0670   56.5320  -29.5720 O.co2 182  GLU182     -0.2457
     90  N         16.6030   56.9920  -34.9130 N.3   228  ASN228     -0.1240
     91  CA        17.1590   58.2270  -34.3340 C.3   228  ASN228      0.1653
     92  C         17.0570   59.4310  -35.2620 C.2   228  ASN228      0.2266
     93  O         16.9110   60.5750  -34.8080 O.2   228  ASN228     -0.2867
     94  CB        18.6430   58.0430  -33.9880 C.3   228  ASN228      0.1155
     95  CG        18.8610   57.3900  -32.6330 C.2   228  ASN228      0.2627
     96  OD1       17.9240   56.9160  -31.9860 O.2   228  ASN228     -0.2716
     97  ND2       20.1210   57.3710  -32.1930 N.am  228  ASN228     -0.0877
     98  N         18.1510   62.2530  -32.8750 N.3   255  TYR255     -0.1241
     99  CA        19.4430   62.7620  -33.3150 C.3   255  TYR255      0.1605
    100  C         19.4110   63.0590  -34.8220 C.2   255  TYR255      0.2264
    101  O         19.8490   62.2430  -35.6360 O.2   255  TYR255     -0.2867
    102  CB        20.5320   61.7540  -32.9700 C.3   255  TYR255      0.0534
    103  CG        20.9210   61.7650  -31.5100 C.ar  255  TYR255     -0.0201
    104  CD1       21.6650   62.8200  -30.9770 C.ar  255  TYR255     -0.0009
    105  CD2       20.5560   60.7250  -30.6620 C.ar  255  TYR255     -0.0009
    106  CE1       22.0310   62.8350  -29.6360 C.ar  255  TYR255      0.0417
    107  CE2       20.9160   60.7280  -29.3250 C.ar  255  TYR255      0.0417
    108  CZ        21.6530   61.7840  -28.8130 C.ar  255  TYR255      0.1957
    109  OH        22.0440   61.7800  -27.4840 O.3   255  TYR255     -0.2866
    110  N         17.1240   60.2430  -25.0630 N.3   295  GLU295     -0.1245
    111  CA        18.2730   61.0770  -25.4190 C.3   295  GLU295      0.1567
    112  C         17.9340   62.0300  -26.5480 C.2   295  GLU295      0.2260
    113  O         17.2930   61.6530  -27.5240 O.2   295  GLU295     -0.2867
    114  CB        19.4670   60.2550  -25.9140 C.3   295  GLU295      0.0388
    115  CG        20.1220   59.3360  -24.9180 C.3   295  GLU295      0.1160
    116  CD        21.4070   58.7090  -25.4660 C.2   295  GLU295      0.3649
    117  OE1       22.0610   59.3250  -26.3350 O.co2 295  GLU295     -0.2457
    118  OE2       21.7640   57.5890  -25.0330 O.co2 295  GLU295     -0.2457
    119  N         20.9160   64.3590  -23.2580 N.3   326  TRP326     -0.1241
    120  CA        22.2670   63.7930  -23.3160 C.3   326  TRP326      0.1605
    121  C         23.2990   64.9290  -23.3760 C.2   326  TRP326      0.2264
    122  O         23.4440   65.5630  -24.4230 O.2   326  TRP326     -0.2867
    123  CB        22.4550   62.8630  -24.5300 C.3   326  TRP326      0.0550
    124  CG        23.8130   62.2120  -24.4440 C.ar  326  TRP326      0.0003
    125  CD1       24.9810   62.6970  -24.9440 C.ar  326  TRP326      0.0946
    126  CD2       24.1460   61.0150  -23.7340 C.ar  326  TRP326      0.0152
    127  NE1       26.0260   61.8650  -24.6080 N.ar  326  TRP326     -0.2442
    128  CE2       25.5390   60.8230  -23.8670 C.ar  326  TRP326      0.0810
    129  CE3       23.4040   60.0770  -23.0090 C.ar  326  TRP326      0.0012
    130  CZ2       26.1990   59.7330  -23.3040 C.ar  326  TRP326      0.0191
    131  CZ3       24.0610   59.0040  -22.4420 C.ar  326  TRP326      0.0001
    132  CH2       25.4540   58.8410  -22.5970 C.ar  326  TRP326      0.0015
    133  N         28.2240   70.2030  -24.7640 N.3   333  TRP333     -0.1241
    134  CA        26.8920   69.6030  -24.9320 C.3   333  TRP333      0.1605
    135  C         26.0570   69.7340  -23.6660 C.2   333  TRP333      0.2264
    136  O         24.8310   69.7750  -23.7370 O.2   333  TRP333     -0.2867
    137  CB        26.9780   68.1090  -25.2260 C.3   333  TRP333      0.0550
    138  CG        27.2840   67.7070  -26.6160 C.ar  333  TRP333      0.0003
    139  CD1       28.3190   68.1380  -27.3960 C.ar  333  TRP333      0.0946
    140  CD2       26.5900   66.7090  -27.3790 C.ar  333  TRP333      0.0152
    141  NE1       28.2980   67.4910  -28.6130 N.ar  333  TRP333     -0.2442
    142  CE2       27.2470   66.6040  -28.6260 C.ar  333  TRP333      0.0810
    143  CE3       25.4680   65.9000  -27.1330 C.ar  333  TRP333      0.0012
    144  CZ2       26.8170   65.7320  -29.6210 C.ar  333  TRP333      0.0191
    145  CZ3       25.0490   65.0280  -28.1190 C.ar  333  TRP333      0.0001
    146  CH2       25.7160   64.9530  -29.3500 C.ar  333  TRP333      0.0015
@<TRIPOS>BOND
     1   101   100    2
     2    67    66    2
     3    66    65    1
     4    92    93    2
     5    92    91    1
     6    68    65    1
     7    68    69    1
     8    90    91    1
     9   100    99    1
    10    65    64    1
    11    91    94    1
    12    71    70   ar
    13    94    95    1
    14    69    70    1
    15    70    72   ar
    16    64    52   am
    17    50    51    1
    18    99   102    1
    19    99    98    1
    20    52    53    2
    21    52    51    1
    22   102   103    1
    23    95    97   am
    24    95    96    2
    25    51    54    1
    26   103   104   ar
    27   103   105   ar
    28    54    55    1
    29   104   106   ar
    30    55    56   ar
    31    55    57   ar
    32    56    58   ar
    33    57    60   ar
    34    57    59   ar
    35   105   107   ar
    36    60    62   ar
    37    58    59   ar
    38    59    61   ar
    39    62    63   ar
    40    61    63   ar
    41    88    87   ar
    42    40    38    1
    43    84    83    2
    44   106   108   ar
    45   144   146   ar
    46   144   142   ar
    47    89    87   ar
    48    87    86    1
    49   146   145   ar
    50   107   108   ar
    51    83    82    1
    52    41    39    1
    53    39    38    1
    54    85    82    1
    55    85    86    1
    56   108   109    1
    57    38    35    1
    58    82    81    1
    59   142   141   ar
    60   142   140   ar
    61   141   139   ar
    62   145   143   ar
    63    28    27    1
    64    28    29    2
    65   113   112    2
    66   139   138   ar
    67    35    36    1
    68    35    34    1
    69   140   143   ar
    70   140   138   ar
    71    81    75   am
    72    27    30    1
    73    27    26    1
    74    30    31    1
    75    36    37    2
    76    33    31   ar
    77    76    75    2
    78   138   137    1
    79   112   111    1
    80    75    74    1
    81   117   116   ar
    82    31    32   ar
    83   114   111    1
    84   114   115    1
    85    80    78   am
    86   116   118   ar
    87   116   115    1
    88   111   110    1
    89   137   134    1
    90    78    79    2
    91    78    77    1
    92   125   127   ar
    93   125   124   ar
    94    74    77    1
    95    74    73    1
    96   134   133    1
    97   134   135    1
    98    42    43    1
    99   127   128   ar
   100   123   124    1
   101   123   120    1
   102   124   126   ar
   103   122   121    2
   104    45    44    2
   105    49    47   am
   106    15    14    1
   107   128   126   ar
   108   128   130   ar
   109   136   135    2
   110   126   129   ar
   111    25    24   ar
   112    25    23   ar
   113   121   120    1
   114   120   119    1
   115   130   132   ar
   116    43    44    1
   117    43    46    1
   118    24    22   ar
   119    47    46    1
   120    47    48    2
   121   129   131   ar
   122    14    13    1
   123    23    21   ar
   124   132   131   ar
   125    22    21   ar
   126     6     5    1
   127    13    12    1
   128    18    19    2
   129    18    17    1
   130    21    20    1
   131    17    20    1
   132    17    16    1
   133     5     2    1
   134    12    11    1
   135    11     8    1
   136     2     3    1
   137     2     1    1
   138     4     3    2
   139     8     9    1
   140     8     7    1
   141    10     9    2
