@<TRIPOS>MOLECULE
tmp/2oymA00.pdb
 185 181 0 0 0
SMALL
GASTEIGER

@<TRIPOS>ATOM
      1  N         30.3430   54.8010  -18.2650 N.3    24  LYS24      -0.1245
      2  CA        30.5430   53.7690  -19.2990 C.3    24  LYS24       0.1561
      3  C         31.7820   52.9060  -19.0960 C.2    24  LYS24       0.2260
      4  O         31.7260   51.6910  -19.2870 O.2    24  LYS24      -0.2867
      5  CB        30.6610   54.4140  -20.6840 C.3    24  LYS24       0.0271
      6  CG        29.3620   54.9310  -21.2930 C.3    24  LYS24       0.0035
      7  CD        29.6660   55.7210  -22.5580 C.3    24  LYS24       0.0206
      8  CE        28.4310   56.3240  -23.1800 C.3    24  LYS24       0.1093
      9  NZ        28.6750   56.8110  -24.5840 N.3    24  LYS24      -0.1314
     10  N         22.9120   50.2530  -20.2280 N.3    93  HIS93      -0.1241
     11  CA        23.5620   50.9890  -21.2980 C.3    93  HIS93       0.1621
     12  C         24.6320   50.1950  -22.0210 C.2    93  HIS93       0.2264
     13  O         25.4290   49.5100  -21.3980 O.2    93  HIS93      -0.2867
     14  CB        24.1660   52.2640  -20.7550 C.3    93  HIS93       0.0745
     15  CG        24.4500   53.2820  -21.8100 C.ar   93  HIS93       0.0817
     16  ND1       23.5140   54.2050  -22.2210 N.ar   93  HIS93      -0.2268
     17  CD2       25.5510   53.4940  -22.5690 C.ar   93  HIS93       0.1154
     18  CE1       24.0410   54.9720  -23.1560 C.ar   93  HIS93       0.1986
     19  NE2       25.2750   54.5570  -23.3920 N.ar   93  HIS93      -0.2212
     20  N         27.1460   50.9400  -25.8010 N.3    95  ASP95      -0.1239
     21  CA        27.4610   51.5000  -27.1250 C.3    95  ASP95       0.1674
     22  C         28.5250   50.5860  -27.7320 C.2    95  ASP95       0.2266
     23  O         29.5600   50.3020  -27.1020 O.2    95  ASP95      -0.2867
     24  CB        28.0040   52.9230  -27.0650 C.3    95  ASP95       0.1410
     25  CG        27.0940   53.8770  -26.3210 C.2    95  ASP95       0.3668
     26  OD1       26.0730   54.3240  -26.9080 O.co2  95  ASP95      -0.2456
     27  OD2       27.4190   54.1860  -25.1480 O.co2  95  ASP95      -0.2456
     28  N         34.2160   56.7390  -33.8310 N.3   126  TRP126     -0.1227
     29  CA        33.7640   55.6270  -32.9920 C.3   126  TRP126      0.1737
     30  C         32.5410   54.9040  -33.5830 C.2   126  TRP126      0.2595
     31  O         32.4380   53.6760  -33.4870 O.2   126  TRP126     -0.2718
     32  CB        33.5060   56.0730  -31.5410 C.3   126  TRP126      0.0564
     33  CG        32.2630   56.8700  -31.3340 C.ar  126  TRP126      0.0003
     34  CD1       32.1490   58.2290  -31.3490 C.ar  126  TRP126      0.0946
     35  CD2       30.9470   56.3580  -31.0640 C.ar  126  TRP126      0.0152
     36  NE1       30.8480   58.5980  -31.1070 N.ar  126  TRP126     -0.2442
     37  CE2       30.0870   57.4690  -30.9340 C.ar  126  TRP126      0.0810
     38  CE3       30.4120   55.0670  -30.9240 C.ar  126  TRP126      0.0012
     39  CZ2       28.7180   57.3310  -30.6750 C.ar  126  TRP126      0.0191
     40  CZ3       29.0500   54.9300  -30.6680 C.ar  126  TRP126      0.0001
     41  CH2       28.2210   56.0560  -30.5420 C.ar  126  TRP126      0.0015
     42  N         31.6460   55.6620  -34.2170 N.am  127  GLU127     -0.1979
     43  CA        30.4060   55.1100  -34.7850 C.3   127  GLU127      0.1602
     44  C         30.6720   53.9900  -35.7920 C.2   127  GLU127      0.2287
     45  O         29.8990   53.0380  -35.8740 O.2   127  GLU127     -0.2864
     46  CB        29.5640   56.1990  -35.4660 C.3   127  GLU127      0.0415
     47  CG        29.1170   57.3260  -34.5490 C.3   127  GLU127      0.1163
     48  CD        30.0840   58.5110  -34.4880 C.2   127  GLU127      0.3649
     49  OE1       31.2620   58.3830  -34.8820 O.co2 127  GLU127     -0.2457
     50  OE2       29.6470   59.5950  -34.0420 O.co2 127  GLU127     -0.2457
     51  N         30.7610   50.0140  -35.0720 N.3   130  TYR130     -0.1227
     52  CA        29.5420   49.1980  -35.0990 C.3   130  TYR130      0.1736
     53  C         29.5070   48.1790  -36.2470 C.2   130  TYR130      0.2595
     54  O         28.9630   47.0940  -36.1010 O.2   130  TYR130     -0.2718
     55  CB        28.3000   50.0890  -35.1980 C.3   130  TYR130      0.0548
     56  CG        27.6590   50.4530  -33.8730 C.ar  130  TYR130     -0.0200
     57  CD1       27.0280   49.4890  -33.0970 C.ar  130  TYR130     -0.0009
     58  CD2       27.6300   51.7740  -33.4330 C.ar  130  TYR130     -0.0009
     59  CE1       26.3980   49.8260  -31.8930 C.ar  130  TYR130      0.0417
     60  CE2       27.0190   52.1220  -32.2220 C.ar  130  TYR130      0.0417
     61  CZ        26.4030   51.1430  -31.4610 C.ar  130  TYR130      0.1957
     62  OH        25.7870   51.4820  -30.2690 O.3   130  TYR130     -0.2866
     63  N         30.0740   48.5470  -37.3920 N.am  131  ILE131     -0.1980
     64  CA        29.9830   47.7100  -38.5890 C.3   131  ILE131      0.1595
     65  C         31.2410   46.8720  -38.8690 C.2   131  ILE131      0.2287
     66  O         31.3240   46.2190  -39.9190 O.2   131  ILE131     -0.2864
     67  CB        29.6120   48.5600  -39.8340 C.3   131  ILE131      0.0276
     68  CG1       30.7500   49.5100  -40.2200 C.3   131  ILE131      0.0022
     69  CG2       28.3190   49.3420  -39.5700 C.3   131  ILE131      0.0022
     70  CD1       30.5400   50.2220  -41.5270 C.3   131  ILE131      0.0001
     71  N         19.8440   50.3280  -24.1700 N.3   180  ASN180     -0.1225
     72  CA        20.2490   51.5350  -24.8860 C.3   180  ASN180      0.1785
     73  C         20.5240   51.2140  -26.3480 C.2   180  ASN180      0.2597
     74  O         21.2080   50.2310  -26.6580 O.2   180  ASN180     -0.2718
     75  CB        21.5060   52.1660  -24.2990 C.3   180  ASN180      0.1169
     76  CG        21.8820   53.4520  -25.0000 C.2   180  ASN180      0.2627
     77  OD1       21.1700   54.4400  -24.8990 O.2   180  ASN180     -0.2716
     78  ND2       23.0060   53.4430  -25.7310 N.am  180  ASN180     -0.0877
     79  N         19.9780   52.0590  -27.2210 N.am  181  GLU181     -0.1979
     80  CA        20.2590   52.0600  -28.6630 C.3   181  GLU181      0.1602
     81  C         20.4980   50.6680  -29.2450 C.2   181  GLU181      0.2287
     82  O         21.6180   50.3400  -29.6900 O.2   181  GLU181     -0.2864
     83  CB        21.4000   53.0460  -28.9760 C.3   181  GLU181      0.0415
     84  CG        21.0680   54.4690  -28.5010 C.3   181  GLU181      0.1163
     85  CD        21.7760   55.5880  -29.2550 C.2   181  GLU181      0.3649
     86  OE1       22.9190   55.3940  -29.7060 O.co2 181  GLU181     -0.2457
     87  OE2       21.1970   56.7000  -29.3570 O.co2 181  GLU181     -0.2457
     88  N         21.0140   47.5480  -31.5140 N.3   183  PHE183     -0.1241
     89  CA        21.6540   47.3900  -32.8180 C.3   183  PHE183      0.1605
     90  C         21.6450   45.9070  -33.1690 C.2   183  PHE183      0.2264
     91  O         22.0440   45.0670  -32.3540 O.2   183  PHE183     -0.2867
     92  CB        23.0810   47.9290  -32.7780 C.3   183  PHE183      0.0534
     93  CG        23.8360   47.7640  -34.0670 C.ar  183  PHE183     -0.0203
     94  CD1       23.5120   48.5260  -35.1830 C.ar  183  PHE183     -0.0042
     95  CD2       24.8880   46.8450  -34.1690 C.ar  183  PHE183     -0.0042
     96  CE1       24.2140   48.3780  -36.3670 C.ar  183  PHE183     -0.0003
     97  CE2       25.5900   46.7050  -35.3550 C.ar  183  PHE183     -0.0003
     98  CZ        25.2530   47.4700  -36.4470 C.ar  183  PHE183     -0.0000
     99  N         18.3110   52.0380  -32.9210 N.3   223  ALA223     -0.1231
    100  CA        18.7520   53.4190  -32.9290 C.3   223  ALA223      0.1694
    101  C         19.0330   53.9000  -34.3440 C.2   223  ALA223      0.2591
    102  O         18.5410   54.9530  -34.7500 O.2   223  ALA223     -0.2718
    103  CB        19.9840   53.6210  -32.0410 C.3   223  ALA223      0.0304
    104  N         19.8390   53.1440  -35.0890 N.am  224  ILE224     -0.1980
    105  CA        20.2970   53.6240  -36.3950 C.3   224  ILE224      0.1595
    106  C         19.0880   53.7370  -37.3290 C.2   224  ILE224      0.2287
    107  O         18.2580   52.8280  -37.3790 O.2   224  ILE224     -0.2864
    108  CB        21.4340   52.7430  -36.9810 C.3   224  ILE224      0.0276
    109  CG1       22.0530   53.4210  -38.2070 C.3   224  ILE224      0.0022
    110  CG2       20.9450   51.3330  -37.2750 C.3   224  ILE224      0.0022
    111  CD1       22.7040   54.7760  -37.8890 C.3   224  ILE224      0.0001
    112  N         16.6660   56.9790  -35.0190 N.3   227  ASN227     -0.1225
    113  CA        17.2260   58.2100  -34.4170 C.3   227  ASN227      0.1785
    114  C         17.1340   59.4270  -35.3390 C.2   227  ASN227      0.2597
    115  O         17.0010   60.5710  -34.8740 O.2   227  ASN227     -0.2718
    116  CB        18.7080   58.0200  -34.0510 C.3   227  ASN227      0.1169
    117  CG        18.9110   57.3770  -32.6810 C.2   227  ASN227      0.2627
    118  OD1       17.9600   56.9590  -32.0220 O.2   227  ASN227     -0.2716
    119  ND2       20.1690   57.2880  -32.2570 N.am  227  ASN227     -0.0877
    120  N         17.2360   59.1620  -36.6380 N.am  228  GLN228     -0.1979
    121  CA        17.2520   60.1910  -37.6760 C.3   228  GLN228      0.1601
    122  C         15.8720   60.4720  -38.2810 C.2   228  GLN228      0.2287
    123  O         15.7790   61.2650  -39.2180 O.2   228  GLN228     -0.2864
    124  CB        18.1990   59.7700  -38.8170 C.3   228  GLN228      0.0394
    125  CG        19.6890   59.7450  -38.4670 C.3   228  GLN228      0.0908
    126  CD        20.0950   58.5780  -37.6010 C.2   228  GLN228      0.2608
    127  OE1       19.5760   57.4690  -37.7420 O.2   228  GLN228     -0.2717
    128  NE2       21.0270   58.8260  -36.6720 N.am  228  GLN228     -0.0878
    129  N         18.2430   62.2340  -32.9000 N.3   254  TYR254     -0.1241
    130  CA        19.5100   62.7480  -33.3900 C.3   254  TYR254      0.1605
    131  C         19.4630   63.0490  -34.9030 C.2   254  TYR254      0.2264
    132  O         19.9080   62.2360  -35.7260 O.2   254  TYR254     -0.2867
    133  CB        20.6350   61.7630  -33.0620 C.3   254  TYR254      0.0534
    134  CG        21.0040   61.7270  -31.5930 C.ar  254  TYR254     -0.0201
    135  CD1       21.7330   62.7680  -31.0160 C.ar  254  TYR254     -0.0009
    136  CD2       20.6200   60.6640  -30.7810 C.ar  254  TYR254     -0.0009
    137  CE1       22.0860   62.7450  -29.6690 C.ar  254  TYR254      0.0417
    138  CE2       20.9630   60.6280  -29.4230 C.ar  254  TYR254      0.0417
    139  CZ        21.7050   61.6670  -28.8800 C.ar  254  TYR254      0.1957
    140  OH        22.0730   61.6330  -27.5560 O.3   254  TYR254     -0.2866
    141  N         24.8850   65.9930  -36.8080 N.3   259  ASP259     -0.1239
    142  CA        25.9950   65.0530  -36.6170 C.3   259  ASP259      0.1674
    143  C         27.1810   65.3300  -37.5520 C.2   259  ASP259      0.2266
    144  O         27.0120   65.5090  -38.7600 O.2   259  ASP259     -0.2867
    145  CB        25.4960   63.6070  -36.7700 C.3   259  ASP259      0.1410
    146  CG        24.7230   63.1170  -35.5390 C.2   259  ASP259      0.3668
    147  OD1       24.3960   63.9340  -34.6500 O.co2 259  ASP259     -0.2456
    148  OD2       24.4460   61.9060  -35.4470 O.co2 259  ASP259     -0.2456
    149  N         17.0910   60.2760  -25.0940 N.3   295  GLU295     -0.1245
    150  CA        18.2530   61.0830  -25.4700 C.3   295  GLU295      0.1567
    151  C         17.9320   62.0580  -26.6010 C.2   295  GLU295      0.2260
    152  O         17.2720   61.7080  -27.5880 O.2   295  GLU295     -0.2867
    153  CB        19.4120   60.2050  -25.9650 C.3   295  GLU295      0.0388
    154  CG        20.0390   59.2950  -24.9420 C.3   295  GLU295      0.1160
    155  CD        21.2670   58.5790  -25.4790 C.2   295  GLU295      0.3649
    156  OE1       21.9270   59.1300  -26.3870 O.co2 295  GLU295     -0.2457
    157  OE2       21.5540   57.4660  -24.9960 O.co2 295  GLU295     -0.2457
    158  N         20.9160   64.3060  -23.2880 N.3   326  TRP326     -0.1241
    159  CA        22.2420   63.6680  -23.3600 C.3   326  TRP326      0.1605
    160  C         23.3060   64.7730  -23.4590 C.2   326  TRP326      0.2264
    161  O         23.4400   65.3930  -24.5140 O.2   326  TRP326     -0.2867
    162  CB        22.3730   62.7210  -24.5800 C.3   326  TRP326      0.0550
    163  CG        23.7400   62.0440  -24.6030 C.ar  326  TRP326      0.0003
    164  CD1       24.8810   62.5020  -25.2130 C.ar  326  TRP326      0.0946
    165  CD2       24.1060   60.8500  -23.9180 C.ar  326  TRP326      0.0152
    166  NE1       25.9260   61.6440  -24.9640 N.ar  326  TRP326     -0.2442
    167  CE2       25.4810   60.6300  -24.1580 C.ar  326  TRP326      0.0810
    168  CE3       23.4100   59.9460  -23.1040 C.ar  326  TRP326      0.0012
    169  CZ2       26.1620   59.5330  -23.6350 C.ar  326  TRP326      0.0191
    170  CZ3       24.0920   58.8560  -22.5870 C.ar  326  TRP326      0.0001
    171  CH2       25.4540   58.6610  -22.8520 C.ar  326  TRP326      0.0015
    172  N         28.3900   70.1450  -24.8530 N.3   333  TRP333     -0.1241
    173  CA        27.0790   69.5000  -25.0010 C.3   333  TRP333      0.1605
    174  C         26.2510   69.6580  -23.7300 C.2   333  TRP333      0.2264
    175  O         25.0230   69.7170  -23.7980 O.2   333  TRP333     -0.2867
    176  CB        27.2140   68.0070  -25.2910 C.3   333  TRP333      0.0550
    177  CG        27.4680   67.6400  -26.7090 C.ar  333  TRP333      0.0003
    178  CD1       28.4500   68.1190  -27.5210 C.ar  333  TRP333      0.0946
    179  CD2       26.7460   66.6670  -27.4770 C.ar  333  TRP333      0.0152
    180  NE1       28.3740   67.5220  -28.7600 N.ar  333  TRP333     -0.2442
    181  CE2       27.3390   66.6230  -28.7580 C.ar  333  TRP333      0.0810
    182  CE3       25.6460   65.8390  -27.2110 C.ar  333  TRP333      0.0012
    183  CZ2       26.8720   65.7810  -29.7710 C.ar  333  TRP333      0.0191
    184  CZ3       25.1860   65.0000  -28.2170 C.ar  333  TRP333      0.0001
    185  CH2       25.7990   64.9790  -29.4820 C.ar  333  TRP333      0.0015
@<TRIPOS>BOND
     1    70    68    1
     2    68    67    1
     3    66    65    2
     4    67    69    1
     5    67    64    1
     6   123   122    2
     7    65    64    1
     8   124   125    1
     9   124   121    1
    10   144   143    2
    11    64    63    1
    12   125   126    1
    13   122   121    1
    14   109   111    1
    15   109   108    1
    16   127   126    2
    17   121   120    1
    18   126   128   am
    19   143   142    1
    20    63    53   am
    21   107   106    2
    22   106   105    1
    23   110   108    1
    24   108   105    1
    25   141   142    1
    26   145   142    1
    27   145   146    1
    28   120   114   am
    29    98    96   ar
    30    98    97   ar
    31   105   104    1
    32    96    94   ar
    33    53    54    2
    34    53    52    1
    35    45    44    2
    36    44    43    1
    37   132   131    2
    38   146   148   ar
    39   146   147   ar
    40    46    43    1
    41    46    47    1
    42    97    95   ar
    43   114   115    2
    44   114   113    1
    45    55    52    1
    46    55    56    1
    47    94    93   ar
    48    52    51    1
    49   104   101   am
    50   112   113    1
    51   131   130    1
    52    49    48   ar
    53    43    42    1
    54   102   101    2
    55    47    48    1
    56    48    50   ar
    57   113   116    1
    58   101   100    1
    59    42    30   am
    60    95    93   ar
    61    93    92    1
    62   116   117    1
    63    56    58   ar
    64    56    57   ar
    65    28    29    1
    66    30    31    2
    67    30    29    1
    68    58    60   ar
    69   130   133    1
    70   130   129    1
    71    90    89    1
    72    90    91    2
    73    57    59   ar
    74   133   134    1
    75    29    32    1
    76   100    99    1
    77   100   103    1
    78    89    92    1
    79    89    88    1
    80   117   119   am
    81   117   118    2
    82    60    61   ar
    83    59    61   ar
    84   134   135   ar
    85   134   136   ar
    86    32    33    1
    87    61    62    1
    88    34    33   ar
    89    34    36   ar
    90    33    35   ar
    91    36    37   ar
    92    35    37   ar
    93    35    38   ar
    94   135   137   ar
    95    37    39   ar
    96    38    40   ar
    97   136   138   ar
    98    39    41   ar
    99    40    41   ar
   100   183   185   ar
   101   183   181   ar
   102    86    85   ar
   103    82    81    2
   104   137   139   ar
   105   185   184   ar
   106   138   139   ar
   107    87    85   ar
   108    85    84    1
   109    81    80    1
   110    83    80    1
   111    83    84    1
   112   139   140    1
   113   180   181   ar
   114   180   178   ar
   115   181   179   ar
   116    80    79    1
   117   184   182   ar
   118    22    21    1
   119    22    23    2
   120   152   151    2
   121   178   177   ar
   122   179   182   ar
   123   179   177   ar
   124    79    73   am
   125    21    24    1
   126    21    20    1
   127    24    25    1
   128    26    25   ar
   129   177   176    1
   130    74    73    2
   131   151   150    1
   132   156   155   ar
   133    73    72    1
   134    25    27   ar
   135   153   150    1
   136   153   154    1
   137    78    76   am
   138   155   157   ar
   139   155   154    1
   140   150   149    1
   141   176   173    1
   142   164   166   ar
   143   164   163   ar
   144   173   172    1
   145   173   174    1
   146    76    77    2
   147    76    75    1
   148   166   167   ar
   149    72    75    1
   150    72    71    1
   151   163   162    1
   152   163   165   ar
   153     9     8    1
   154   162   159    1
   155   161   160    2
   156   167   165   ar
   157   167   169   ar
   158   165   168   ar
   159   175   174    2
   160   169   171   ar
   161   160   159    1
   162    19    18   ar
   163    19    17   ar
   164   159   158    1
   165     8     7    1
   166    18    16   ar
   167   168   170   ar
   168   171   170   ar
   169    17    15   ar
   170     7     6    1
   171    16    15   ar
   172    12    13    2
   173    12    11    1
   174    15    14    1
   175    11    14    1
   176    11    10    1
   177     6     5    1
   178     5     2    1
   179     2     3    1
   180     2     1    1
   181     4     3    2
