@<TRIPOS>MOLECULE
tmp/2oynA00.pdb
 158 155 0 0 0
SMALL
GASTEIGER

@<TRIPOS>ATOM
      1  N         24.2850   11.2760   31.8670 N.3    13  VAL13      -0.1231
      2  CA        23.0720   11.0190   32.6600 C.3    13  VAL13       0.1692
      3  C         22.1500   10.0110   31.9530 C.2    13  VAL13       0.2593
      4  O         22.4330    9.5800   30.8310 O.2    13  VAL13      -0.2718
      5  CB        22.3200   12.2950   33.0280 C.3    13  VAL13       0.0266
      6  CG1       23.1790   13.2210   33.9040 C.3    13  VAL13       0.0020
      7  CG2       21.7720   13.0160   31.7960 C.3    13  VAL13       0.0020
      8  N         21.1080    9.5680   32.6600 N.am   14  SER14      -0.1938
      9  CA        20.2010    8.5530   32.1340 C.3    14  SER14       0.2055
     10  C         18.7830    9.1060   31.9240 C.2    14  SER14       0.2644
     11  O         18.2960    9.9170   32.7120 O.2    14  SER14      -0.2714
     12  CB        20.1400    7.3740   33.1150 C.3    14  SER14       0.2130
     13  OG        19.1600    6.4490   32.6510 O.3    14  SER14      -0.2179
     14  N         18.1470    8.6810   30.8370 N.am   15  GLY15      -0.1939
     15  CA        16.7280    8.9140   30.6210 C.3    15  GLY15       0.2014
     16  C         15.9850    7.6920   31.1500 C.2    15  GLY15       0.2639
     17  O         16.5080    6.9730   32.0220 O.2    15  GLY15      -0.2714
     18  N         14.7740    7.4790   30.6500 N.am   16  LEU16      -0.1963
     19  CA        13.9820    6.2990   30.9780 C.3    16  LEU16       0.1728
     20  C         13.8000    5.3770   29.7650 C.2    16  LEU16       0.2617
     21  O         12.7480    4.7040   29.5930 O.2    16  LEU16      -0.2715
     22  CB        12.6160    6.7200   31.5710 C.3    16  LEU16       0.0311
     23  CG        12.6690    7.3770   32.9490 C.3    16  LEU16       0.0022
     24  CD1       11.3020    7.8800   33.3740 C.3    16  LEU16       0.0001
     25  CD2       13.2970    6.4970   34.0260 C.3    16  LEU16       0.0001
     26  N         14.8170    5.3520   28.9070 N.am   17  GLY17      -0.1940
     27  CA        14.8440    4.4420   27.7750 C.3    17  GLY17       0.2014
     28  C         14.1000    4.9520   26.5570 C.2    17  GLY17       0.2639
     29  O         13.8310    4.1810   25.6350 O.2    17  GLY17      -0.2714
     30  N         13.7810    6.2430   26.5270 N.am   18  GLU18      -0.1963
     31  CA        13.1140    6.8160   25.3600 C.3    18  GLU18       0.1733
     32  C         13.8870    6.6380   24.0480 C.2    18  GLU18       0.2617
     33  O         13.2990    6.2850   23.0260 O.2    18  GLU18      -0.2715
     34  CB        12.8430    8.3100   25.5460 C.3    18  GLU18       0.0429
     35  CG        11.8610    8.6780   26.6700 C.3    18  GLU18       0.1163
     36  CD        12.5490    8.8590   28.0320 C.2    18  GLU18       0.3649
     37  OE1       13.7430    8.4950   28.1900 O.co2  18  GLU18      -0.2457
     38  OE2       11.8740    9.3950   28.9460 O.co2  18  GLU18      -0.2457
     39  N         15.1950    6.8980   24.0640 N.am   19  GLY19      -0.1940
     40  CA        15.9410    6.9680   22.8160 C.3    19  GLY19       0.2014
     41  C         16.1020    5.6090   22.1670 C.2    19  GLY19       0.2638
     42  O         16.1270    5.5210   20.9480 O.2    19  GLY19      -0.2714
     43  N         16.2440    4.5430   22.9660 N.am   20  ARG20      -0.1977
     44  CA        16.3410    3.1860   22.3860 C.3    20  ARG20       0.1597
     45  C         15.0550    2.8410   21.6570 C.2    20  ARG20       0.2287
     46  O         15.0500    2.0080   20.7510 O.2    20  ARG20      -0.2864
     47  CB        16.6580    2.1160   23.4380 C.3    20  ARG20       0.0334
     48  CG        15.4810    1.7360   24.3460 C.3    20  ARG20       0.0492
     49  CD        15.9740    0.8880   25.5140 C.3    20  ARG20       0.2205
     50  NE        16.7560    1.6710   26.4810 N.pl3  20  ARG20      -0.0865
     51  CZ        17.3200    1.1440   27.5690 C.cat  20  ARG20       0.5346
     52  NH1       17.1930   -0.1680   27.8410 N.pl3  20  ARG20       0.1354
     53  NH2       18.0040    1.9010   28.3930 N.pl3  20  ARG20       0.1354
     54  N         23.9380    3.6950   16.6120 N.3    41  TYR41      -0.1227
     55  CA        23.5580    2.7340   17.6330 C.3    41  TYR41       0.1736
     56  C         22.1270    3.0630   18.0480 C.2    41  TYR41       0.2595
     57  O         21.7460    4.2140   18.0490 O.2    41  TYR41      -0.2718
     58  CB        24.4960    2.8010   18.8390 C.3    41  TYR41       0.0548
     59  CG        24.0160    1.9050   19.9560 C.ar   41  TYR41      -0.0200
     60  CD1       24.1360    0.5090   19.8490 C.ar   41  TYR41      -0.0009
     61  CD2       23.3840    2.4420   21.0880 C.ar   41  TYR41      -0.0009
     62  CE1       23.6390   -0.3320   20.8600 C.ar   41  TYR41       0.0417
     63  CE2       22.8880    1.6040   22.1140 C.ar   41  TYR41       0.0417
     64  CZ        23.0310    0.2230   21.9780 C.ar   41  TYR41       0.1957
     65  OH        22.5780   -0.6180   22.9650 O.3    41  TYR41      -0.2866
     66  N         21.3150    2.0470   18.3520 N.am   42  GLU42      -0.1965
     67  CA        19.9150    2.2990   18.7150 C.3    42  GLU42       0.1733
     68  C         19.7320    2.8220   20.1510 C.2    42  GLU42       0.2617
     69  O         19.4900    2.0790   21.1250 O.2    42  GLU42      -0.2715
     70  CB        19.0530    1.0580   18.4270 C.3    42  GLU42       0.0429
     71  CG        18.9020    0.8350   16.9380 C.3    42  GLU42       0.1163
     72  CD        17.8800   -0.2370   16.6140 C.2    42  GLU42       0.3649
     73  OE1       17.2590   -0.7610   17.5630 O.co2  42  GLU42      -0.2457
     74  OE2       17.7090   -0.5270   15.4110 O.co2  42  GLU42      -0.2457
     75  N         19.8890    4.1290   20.2850 N.am   43  GLY43      -0.1940
     76  CA        19.7510    4.7670   21.5850 C.3    43  GLY43       0.2014
     77  C         20.3370    6.1600   21.4930 C.2    43  GLY43       0.2640
     78  O         20.9230    6.5250   20.4670 O.2    43  GLY43      -0.2714
     79  N         20.1820    6.9360   22.5490 N.am   44  THR44      -0.1936
     80  CA        20.8040    8.2770   22.6060 C.3    44  THR44       0.2028
     81  C         21.5480    8.3820   23.9350 C.2    44  THR44       0.2642
     82  O         21.0490    7.9270   24.9670 O.2    44  THR44      -0.2714
     83  CB        19.7700    9.4340   22.4770 C.3    44  THR44       0.1808
     84  OG1       18.8890    9.4770   23.6170 O.3    44  THR44      -0.2208
     85  CG2       18.9650    9.3580   21.1850 C.3    44  THR44       0.0379
     86  N         22.7450    8.9630   23.9120 N.am   45  LEU45      -0.1963
     87  CA        23.4520    9.2650   25.1480 C.3    45  LEU45       0.1728
     88  C         23.0040   10.6240   25.6710 C.2    45  LEU45       0.2616
     89  O         23.2150   11.6640   25.0250 O.2    45  LEU45      -0.2715
     90  CB        24.9740    9.2050   24.9310 C.3    45  LEU45       0.0311
     91  CG        25.8180    9.4920   26.1760 C.3    45  LEU45       0.0022
     92  CD1       25.6340    8.4030   27.1960 C.3    45  LEU45       0.0001
     93  CD2       27.3000    9.5920   25.7900 C.3    45  LEU45       0.0001
     94  N         22.3710   10.6320   26.8520 N.am   46  ASN46      -0.1972
     95  CA        21.8980   11.8930   27.4630 C.3    46  ASN46       0.1688
     96  C         23.0480   12.5810   28.2030 C.2    46  ASN46       0.2292
     97  O         23.7220   11.9510   28.9610 O.2    46  ASN46      -0.2864
     98  CB        20.7340   11.6470   28.4600 C.3    46  ASN46       0.1181
     99  CG        19.5030   11.0770   27.7950 C.2    46  ASN46       0.2629
    100  OD1       19.6180   10.2660   26.8860 O.2    46  ASN46      -0.2716
    101  ND2       18.3150   11.4370   28.2970 N.am   46  ASN46      -0.0877
    102  N         22.6010   12.6660   22.3370 N.3   109  ILE109     -0.1231
    103  CA        23.4930   12.4730   21.2170 C.3   109  ILE109      0.1692
    104  C         23.4020   11.0670   20.6510 C.2   109  ILE109      0.2592
    105  O         23.2090   10.0880   21.3840 O.2   109  ILE109     -0.2718
    106  CB        24.9790   12.8900   21.5270 C.3   109  ILE109      0.0266
    107  CG1       25.6150   12.0050   22.5760 C.3   109  ILE109      0.0019
    108  CG2       25.0410   14.3910   21.9730 C.3   109  ILE109      0.0020
    109  CD1       27.1390   12.1320   22.6500 C.3   109  ILE109      0.0001
    110  N         23.5690   10.9740   19.3440 N.am  110  ILE110     -0.1966
    111  CA        23.6500    9.6850   18.6650 C.3   110  ILE110      0.1727
    112  C         25.0550    9.4800   18.0880 C.2   110  ILE110      0.2616
    113  O         25.7910   10.4590   17.8600 O.2   110  ILE110     -0.2715
    114  CB        22.5520    9.5110   17.5990 C.3   110  ILE110      0.0290
    115  CG1       22.6780   10.5810   16.5030 C.3   110  ILE110      0.0022
    116  CG2       21.1520    9.5880   18.2540 C.3   110  ILE110      0.0023
    117  CD1       21.8160   10.2990   15.2930 C.3   110  ILE110      0.0001
    118  N         25.4380    8.2160   17.9470 N.am  111  ALA111     -0.1977
    119  CA        26.7960    7.8210   17.5480 C.3   111  ALA111      0.1597
    120  C         26.7150    6.4190   16.9380 C.2   111  ALA111      0.2287
    121  O         25.6990    5.7160   17.1200 O.2   111  ALA111     -0.2864
    122  CB        27.7440    7.7910   18.7570 C.3   111  ALA111      0.0319
    123  N         28.2860    3.7470   17.7400 N.3   113  MET113     -0.1230
    124  CA        28.6490    2.7000   18.6870 C.3   113  MET113      0.1702
    125  C         27.9380    2.9980   19.9780 C.2   113  MET113      0.2592
    126  O         27.5600    4.1420   20.2100 O.2   113  MET113     -0.2718
    127  CB        30.1640    2.7460   18.9810 C.3   113  MET113      0.0401
    128  CG        30.8140    4.2160   19.1630 C.3   113  MET113      0.0596
    129  SD        32.4910    3.8950   19.4480 S.3   113  MET113     -0.1393
    130  CE        33.0200    4.0200   17.7170 C.3   113  MET113      0.0692
    131  N         27.8090    1.9850   20.8370 N.am  114  LYS114     -0.1966
    132  CA        27.3510    2.2350   22.2070 C.3   114  LYS114      0.1728
    133  C         28.5200    2.7620   23.0000 C.2   114  LYS114      0.2616
    134  O         29.4850    2.0430   23.3030 O.2   114  LYS114     -0.2715
    135  CB        26.7790    0.9720   22.8760 C.3   114  LYS114      0.0311
    136  CG        26.2670    1.2430   24.2920 C.3   114  LYS114      0.0038
    137  CD        25.3490    0.1390   24.8460 C.3   114  LYS114      0.0206
    138  CE        24.9060    0.5250   26.2610 C.3   114  LYS114      0.1093
    139  NZ        24.2250   -0.6300   26.9680 N.3   114  LYS114     -0.1314
    140  N         28.4280    4.0430   23.3380 N.am  115  LEU115     -0.1963
    141  CA        29.5300    4.7770   23.9190 C.3   115  LEU115      0.1728
    142  C         29.8040    4.2730   25.3310 C.2   115  LEU115      0.2616
    143  O         30.9480    4.1790   25.7480 O.2   115  LEU115     -0.2715
    144  CB        29.1820    6.2760   23.9480 C.3   115  LEU115      0.0311
    145  CG        29.0860    6.9110   22.5440 C.3   115  LEU115      0.0022
    146  CD1       28.5000    8.3230   22.5820 C.3   115  LEU115      0.0001
    147  CD2       30.4510    6.9240   21.9150 C.3   115  LEU115      0.0001
    148  N         28.7410    3.9730   26.0740 N.am  116  ARG116     -0.1977
    149  CA        28.9160    3.4300   27.4250 C.3   116  ARG116      0.1597
    150  C         29.7540    2.1570   27.4340 C.2   116  ARG116      0.2287
    151  O         30.6080    1.9980   28.3150 O.2   116  ARG116     -0.2864
    152  CB        27.5820    3.1660   28.1470 C.3   116  ARG116      0.0334
    153  CG        26.8290    4.4020   28.5660 C.3   116  ARG116      0.0492
    154  CD        25.6910    4.0360   29.5390 C.3   116  ARG116      0.2205
    155  NE        24.7780    5.1520   29.8110 N.pl3 116  ARG116     -0.0865
    156  CZ        24.7700    5.8260   30.9630 C.cat 116  ARG116      0.5346
    157  NH1       25.6340    5.5080   31.9140 N.pl3 116  ARG116      0.1354
    158  NH2       23.9200    6.8180   31.1470 N.pl3 116  ARG116      0.1354
@<TRIPOS>BOND
     1   117   115    1
     2    74    72   ar
     3   115   114    1
     4    54    55    1
     5    72    71    1
     6    72    73   ar
     7   120   121    2
     8   120   119    1
     9    71    70    1
    10   119   118    1
    11   119   122    1
    12   114   116    1
    13   114   111    1
    14    55    56    1
    15    55    58    1
    16   130   129    1
    17   123   124    1
    18   113   112    2
    19   118   112   am
    20    56    57    2
    21    56    66   am
    22   112   111    1
    23    66    67    1
    24    70    67    1
    25   111   110    1
    26   124   127    1
    27   124   125    1
    28    67    68    1
    29    58    59    1
    30   127   128    1
    31   128   129    1
    32   110   104   am
    33    60    59   ar
    34    60    62   ar
    35    59    61   ar
    36   125   126    2
    37   125   131   am
    38    68    75   am
    39    68    69    2
    40    75    76    1
    41    78    77    2
    42   104   103    1
    43   104   105    2
    44    46    45    2
    45   131   132    1
    46    62    64   ar
    47    42    41    2
    48    61    63   ar
    49    85    83    1
    50   103   106    1
    51   103   102    1
    52    77    76    1
    53    77    79   am
    54   106   108    1
    55   106   107    1
    56    45    44    1
    57   147   145    1
    58    64    63   ar
    59    64    65    1
    60    41    40    1
    61    41    43   am
    62   132   135    1
    63   132   133    1
    64    44    43    1
    65    44    47    1
    66    83    80    1
    67    83    84    1
    68   145   146    1
    69   145   144    1
    70    79    80    1
    71   107   109    1
    72    80    81    1
    73    40    39    1
    74   135   136    1
    75   133   134    2
    76   133   140   am
    77    33    32    2
    78   140   141    1
    79    47    48    1
    80    86    81   am
    81    86    87    1
    82   141   144    1
    83   141   142    1
    84    81    82    2
    85    32    39   am
    86    32    31    1
    87   136   137    1
    88    48    49    1
    89   137   138    1
    90    90    87    1
    91    90    91    1
    92    89    88    2
    93    87    88    1
    94   142   143    2
    95   142   148   am
    96    31    34    1
    97    31    30    1
    98    49    50    1
    99    34    35    1
   100    29    28    2
   101    88    94   am
   102    93    91    1
   103   148   149    1
   104    91    92    1
   105   138   139    1
   106    50    51    2
   107    30    28   am
   108    28    27    1
   109    35    36    1
   110    94    95    1
   111   100    99    2
   112   149   150    1
   113   149   152    1
   114   150   151    2
   115    95    96    1
   116    95    98    1
   117    51    52    1
   118    51    53    1
   119    27    26    1
   120    99   101   am
   121    99    98    1
   122    36    37   ar
   123    36    38   ar
   124   152   153    1
   125    96    97    2
   126   153   154    1
   127    26    20   am
   128   154   155    1
   129    21    20    2
   130    20    19    1
   131   155   156    2
   132    15    14    1
   133    15    16    1
   134    18    19    1
   135    18    16   am
   136     4     3    2
   137    14    10   am
   138   156   158    1
   139   156   157    1
   140    19    22    1
   141    16    17    2
   142    22    23    1
   143     7     5    1
   144     1     2    1
   145    10     9    1
   146    10    11    2
   147     3     8   am
   148     3     2    1
   149     9     8    1
   150     9    12    1
   151    13    12    1
   152     2     5    1
   153    23    24    1
   154    23    25    1
   155     5     6    1
