@<TRIPOS>MOLECULE
tmp/2oyqK00.pdb
 117 108 0 0 0
SMALL
GASTEIGER

@<TRIPOS>ATOM
      1  N         -7.4800   56.5340   40.8440 N.3   282  PHE282     -0.1241
      2  CA        -8.4700   57.0100   41.8170 C.3   282  PHE282      0.1605
      3  C         -8.4870   56.1290   43.0640 C.2   282  PHE282      0.2264
      4  O         -9.5310   55.6300   43.4920 O.2   282  PHE282     -0.2867
      5  CB        -9.8640   57.1740   41.1740 C.3   282  PHE282      0.0534
      6  CG        -9.9450   58.3410   40.2080 C.ar  282  PHE282     -0.0203
      7  CD1      -10.2230   59.6300   40.6700 C.ar  282  PHE282     -0.0042
      8  CD2       -9.6990   58.1540   38.8420 C.ar  282  PHE282     -0.0042
      9  CE1      -10.2750   60.7100   39.7830 C.ar  282  PHE282     -0.0003
     10  CE2       -9.7430   59.2300   37.9400 C.ar  282  PHE282     -0.0003
     11  CZ       -10.0340   60.5100   38.4100 C.ar  282  PHE282     -0.0000
     12  N        -29.3380   61.2230   44.2750 N.3   411  ASP411     -0.1239
     13  CA       -28.1550   61.8990   43.7630 C.3   411  ASP411      0.1674
     14  C        -28.4780   62.8390   42.6110 C.2   411  ASP411      0.2266
     15  O        -29.4310   62.6060   41.8850 O.2   411  ASP411     -0.2867
     16  CB       -27.1790   60.8490   43.2610 C.3   411  ASP411      0.1410
     17  CG       -25.7840   61.0820   43.7660 C.2   411  ASP411      0.3668
     18  OD1      -25.5660   60.8400   44.9820 O.co2 411  ASP411     -0.2456
     19  OD2      -24.9170   61.5090   42.9530 O.co2 411  ASP411     -0.2456
     20  N        -27.1310   63.8760   39.0230 N.3   413  THR413     -0.1203
     21  CA       -26.1570   63.5030   37.9730 C.3   413  THR413      0.1994
     22  C        -25.3360   64.7050   37.4650 C.2   413  THR413      0.2619
     23  O        -25.8880   65.7910   37.2370 O.2   413  THR413     -0.2717
     24  CB       -26.8150   62.8310   36.7420 C.3   413  THR413      0.1784
     25  OG1      -27.2170   63.8360   35.8040 O.3   413  THR413     -0.2211
     26  CG2      -28.0140   61.9780   37.1360 C.3   413  THR413      0.0376
     27  N        -24.0300   64.4850   37.2830 N.am  414  SER414     -0.1937
     28  CA       -23.0830   65.4980   36.7900 C.3   414  SER414      0.2055
     29  C        -23.4560   66.9300   37.1650 C.2   414  SER414      0.2642
     30  O        -23.7770   67.7450   36.3030 O.2   414  SER414     -0.2714
     31  CB       -22.8760   65.3610   35.2800 C.3   414  SER414      0.2130
     32  OG       -21.8510   64.4230   34.9890 O.3   414  SER414     -0.2179
     33  N        -23.3850   67.2270   38.4590 N.am  415  LEU415     -0.1977
     34  CA       -23.9450   68.4570   38.9970 C.3   415  LEU415      0.1596
     35  C        -23.3870   69.7060   38.3360 C.2   415  LEU415      0.2287
     36  O        -24.1120   70.4240   37.6450 O.2   415  LEU415     -0.2864
     37  CB       -23.7840   68.5290   40.5190 C.3   415  LEU415      0.0297
     38  CG       -24.3810   69.7810   41.1620 C.3   415  LEU415      0.0022
     39  CD1      -25.8570   69.8770   40.8690 C.3   415  LEU415      0.0001
     40  CD2      -24.1220   69.8370   42.6540 C.3   415  LEU415      0.0001
     41  N        -20.4590   60.9070   25.0710 N.3   482  ARG482     -0.1245
     42  CA       -20.4380   59.8990   26.1120 C.3   482  ARG482      0.1563
     43  C        -21.5410   58.8830   25.8190 C.2   482  ARG482      0.2260
     44  O        -21.3200   57.6810   25.9380 O.2   482  ARG482     -0.2867
     45  CB       -20.6270   60.5470   27.4890 C.3   482  ARG482      0.0307
     46  CG       -20.6510   59.5800   28.6660 C.3   482  ARG482      0.0489
     47  CD       -19.3190   59.5160   29.3810 C.3   482  ARG482      0.2205
     48  NE       -19.2520   58.3900   30.3160 N.pl3 482  ARG482     -0.0865
     49  CZ       -19.7510   58.3920   31.5550 C.cat 482  ARG482      0.5346
     50  NH1      -20.3700   59.4650   32.0430 N.pl3 482  ARG482      0.1354
     51  NH2      -19.6280   57.3100   32.3130 N.pl3 482  ARG482      0.1354
     52  N        -21.1240   54.9500   24.5700 N.3   486  LYS486     -0.1245
     53  CA       -21.7650   54.0350   25.5130 C.3   486  LYS486      0.1561
     54  C        -22.5860   53.0090   24.7470 C.2   486  LYS486      0.2260
     55  O        -22.5290   51.8090   25.0430 O.2   486  LYS486     -0.2867
     56  CB       -22.6550   54.7820   26.5110 C.3   486  LYS486      0.0271
     57  CG       -22.0020   55.0640   27.8670 C.3   486  LYS486      0.0035
     58  CD       -21.7270   53.7840   28.6680 C.3   486  LYS486      0.0206
     59  CE       -23.0040   53.1470   29.2210 C.3   486  LYS486      0.1093
     60  NZ       -23.6630   53.9920   30.2540 N.3   486  LYS486     -0.1314
     61  N        -15.4120   56.2620   25.8050 N.3   547  GLN547     -0.1231
     62  CA       -16.5320   56.4630   26.7200 C.3   547  GLN547      0.1698
     63  C        -16.0840   56.9800   28.0910 C.2   547  GLN547      0.2592
     64  O        -16.7110   57.8650   28.6630 O.2   547  GLN547     -0.2718
     65  CB       -17.3180   55.1560   26.8380 C.3   547  GLN547      0.0381
     66  CG       -18.4870   55.1860   27.7910 C.3   547  GLN547      0.0905
     67  CD       -18.1500   54.6130   29.1610 C.2   547  GLN547      0.2608
     68  OE1      -17.4600   53.5940   29.2720 O.2   547  GLN547     -0.2717
     69  NE2      -18.6460   55.2630   30.2120 N.am  547  GLN547     -0.0878
     70  N        -14.9920   56.4270   28.6070 N.am  548  ILE548     -0.1980
     71  CA       -14.4330   56.8720   29.8750 C.3   548  ILE548      0.1595
     72  C        -13.8200   58.2600   29.7240 C.2   548  ILE548      0.2287
     73  O        -14.1880   59.1700   30.4540 O.2   548  ILE548     -0.2864
     74  CB       -13.4160   55.8370   30.4470 C.3   548  ILE548      0.0276
     75  CG1      -14.1350   54.5390   30.8450 C.3   548  ILE548      0.0022
     76  CG2      -12.6210   56.4060   31.6240 C.3   548  ILE548      0.0022
     77  CD1      -15.3300   54.7100   31.8010 C.3   548  ILE548      0.0001
     78  N        -16.2390   60.7500   30.3070 N.3   551  LYS551     -0.1245
     79  CA       -16.5800   60.9110   31.7320 C.3   551  LYS551      0.1561
     80  C        -15.5340   61.7300   32.4780 C.2   551  LYS551      0.2260
     81  O        -15.8830   62.5520   33.3220 O.2   551  LYS551     -0.2867
     82  CB       -16.7420   59.5600   32.4330 C.3   551  LYS551      0.0271
     83  CG       -17.1450   59.6910   33.9140 C.3   551  LYS551      0.0035
     84  CD       -17.2000   58.3580   34.6630 C.3   551  LYS551      0.0206
     85  CE       -15.8510   57.9910   35.3000 C.3   551  LYS551      0.1093
     86  NZ       -15.8940   56.6820   36.0440 N.3   551  LYS551     -0.1314
     87  N        -15.7540   65.7240   33.8900 N.3   555  ASN555     -0.1225
     88  CA       -15.5180   65.8880   35.3090 C.3   555  ASN555      0.1785
     89  C        -14.3180   66.7550   35.6170 C.2   555  ASN555      0.2597
     90  O        -14.2110   67.3040   36.7070 O.2   555  ASN555     -0.2718
     91  CB       -15.4100   64.5230   35.9830 C.3   555  ASN555      0.1169
     92  CG       -16.7760   63.9210   36.3140 C.2   555  ASN555      0.2627
     93  OD1      -16.9080   62.7090   36.4640 O.2   555  ASN555     -0.2716
     94  ND2      -17.7900   64.7690   36.4480 N.am  555  ASN555     -0.0877
     95  N        -13.4330   66.9020   34.6410 N.am  556  SER556     -0.1952
     96  CA       -12.2490   67.7290   34.8040 C.3   556  SER556      0.1924
     97  C        -12.4990   69.1910   34.4360 C.2   556  SER556      0.2314
     98  O        -11.6520   70.0450   34.6760 O.2   556  SER556     -0.2863
     99  CB       -11.1030   67.1700   33.9690 C.3   556  SER556      0.2116
    100  OG       -11.4730   67.1120   32.6080 O.3   556  SER556     -0.2180
    101  N        -24.0650   67.2370   46.2130 N.3   614  ASP614     -0.1239
    102  CA       -25.0730   66.8230   45.2370 C.3   614  ASP614      0.1674
    103  C        -25.9330   65.6400   45.6860 C.2   614  ASP614      0.2266
    104  O        -26.7410   65.1280   44.8950 O.2   614  ASP614     -0.2867
    105  CB       -24.3870   66.4510   43.9280 C.3   614  ASP614      0.1410
    106  CG       -23.7260   65.0810   43.9840 C.2   614  ASP614      0.3668
    107  OD1      -23.3800   64.6130   45.0970 O.co2 614  ASP614     -0.2456
    108  OD2      -23.5550   64.4630   42.9090 O.co2 614  ASP614     -0.2456
    109  N        -28.7270   52.0820   42.7110 N.3   707  GLU707     -0.1245
    110  CA       -29.2440   52.4500   41.3810 C.3   707  GLU707      0.1567
    111  C        -30.0160   51.3150   40.6900 C.2   707  GLU707      0.2260
    112  O        -29.9360   51.1630   39.4740 O.2   707  GLU707     -0.2867
    113  CB       -28.1060   52.9270   40.4730 C.3   707  GLU707      0.0388
    114  CG       -27.5450   54.2970   40.8180 C.3   707  GLU707      0.1160
    115  CD       -26.1530   54.5510   40.2200 C.2   707  GLU707      0.3649
    116  OE1      -25.4870   53.5760   39.7970 O.co2 707  GLU707     -0.2457
    117  OE2      -25.7220   55.7300   40.1800 O.co2 707  GLU707     -0.2457
@<TRIPOS>BOND
     1    52    53    1
     2    54    55    2
     3    54    53    1
     4    41    42    1
     5    53    56    1
     6    61    62    1
     7    43    44    2
     8    43    42    1
     9    42    45    1
    10    56    57    1
    11    62    65    1
    12    62    63    1
    13    65    66    1
    14    45    46    1
    15    66    67    1
    16    57    58    1
    17    63    70   am
    18    63    64    2
    19    70    71    1
    20    46    47    1
    21    58    59    1
    22    67    68    2
    23    67    69   am
    24    59    60    1
    25    47    48    1
    26    72    71    1
    27    72    73    2
    28    71    74    1
    29    78    79    1
    30    48    49    2
    31    74    75    1
    32    74    76    1
    33    75    77    1
    34    49    50    1
    35    49    51    1
    36    79    82    1
    37    79    80    1
    38    82    83    1
    39    80    81    2
    40   100    99    1
    41    87    88    1
    42    83    84    1
    43    99    96    1
    44    97    98    2
    45    97    96    1
    46    95    96    1
    47    95    89   am
    48    84    85    1
    49    32    31    1
    50    31    28    1
    51    85    86    1
    52    88    89    1
    53    88    91    1
    54    89    90    2
    55    25    24    1
    56    91    92    1
    57    30    29    2
    58    92    94   am
    59    92    93    2
    60    24    26    1
    61    24    21    1
    62    28    29    1
    63    28    27    1
    64    29    33   am
    65    23    22    2
    66    27    22   am
    67    22    21    1
    68    36    35    2
    69    10    11   ar
    70    10     8   ar
    71    21    20    1
    72    35    34    1
    73    11     9   ar
    74    33    34    1
    75     8     6   ar
    76    34    37    1
    77   112   111    2
    78     9     7   ar
    79   116   115   ar
    80   117   115   ar
    81     6     7   ar
    82     6     5    1
    83   115   114    1
    84   113   114    1
    85   113   110    1
    86    37    38    1
    87   111   110    1
    88     1     2    1
    89    39    38    1
    90    38    40    1
    91     5     2    1
    92   110   109    1
    93     2     3    1
    94    15    14    2
    95    14    13    1
    96   108   106   ar
    97    19    17   ar
    98     3     4    2
    99    16    13    1
   100    16    17    1
   101    13    12    1
   102    17    18   ar
   103   105   106    1
   104   105   102    1
   105   106   107   ar
   106   104   103    2
   107   102   103    1
   108   102   101    1
