@<TRIPOS>MOLECULE
tmp/2oyrA00.pdb
 211 202 0 0 0
SMALL
GASTEIGER

@<TRIPOS>ATOM
      1  N         27.9970   53.3010   18.3930 N.3    91  ASP91      -0.1225
      2  CA        26.8800   52.6780   19.1000 C.3    91  ASP91       0.1805
      3  C         26.5030   53.7110   20.1420 C.2    91  ASP91       0.2598
      4  O         27.1450   53.8150   21.1850 O.2    91  ASP91      -0.2718
      5  CB        27.3260   51.3920   19.7980 C.3    91  ASP91       0.1424
      6  CG        26.1590   50.6030   20.3720 C.2    91  ASP91       0.3668
      7  OD1       25.2630   51.2180   21.0020 O.co2  91  ASP91      -0.2456
      8  OD2       26.1450   49.3600   20.2040 O.co2  91  ASP91      -0.2456
      9  N         25.4610   54.4740   19.8500 N.am   92  ALA92      -0.1966
     10  CA        25.0160   55.5470   20.7220 C.3    92  ALA92       0.1728
     11  C         24.3130   55.1010   22.0020 C.2    92  ALA92       0.2617
     12  O         24.0360   55.9240   22.8690 O.2    92  ALA92      -0.2715
     13  CB        24.1080   56.4800   19.9310 C.3    92  ALA92       0.0334
     14  N         24.0460   53.8020   22.1210 N.am   93  THR93      -0.1937
     15  CA        23.3450   53.2400   23.2730 C.3    93  THR93       0.2028
     16  C         23.9950   51.8970   23.6760 C.2    93  THR93       0.2642
     17  O         23.3390   50.8530   23.6590 O.2    93  THR93      -0.2714
     18  CB        21.8630   52.9930   22.9080 C.3    93  THR93       0.1808
     19  OG1       21.8010   52.2060   21.7140 O.3    93  THR93      -0.2208
     20  CG2       21.1230   54.3110   22.6560 C.3    93  THR93       0.0379
     21  N         25.2740   51.9400   24.0520 N.am   94  ALA94      -0.1963
     22  CA        26.0550   50.7470   24.4130 C.3    94  ALA94       0.1728
     23  C         25.4060   49.6310   25.2430 C.2    94  ALA94       0.2617
     24  O         25.4390   48.4610   24.8460 O.2    94  ALA94      -0.2715
     25  CB        27.3630   51.1780   25.0800 C.3    94  ALA94       0.0334
     26  N         24.8410   49.9730   26.3980 N.am   95  GLY95      -0.1940
     27  CA        24.2380   48.9500   27.2370 C.3    95  GLY95       0.2014
     28  C         25.2820   47.9260   27.6630 C.2    95  GLY95       0.2639
     29  O         26.3160   48.2890   28.2170 O.2    95  GLY95      -0.2714
     30  N         25.0270   46.6500   27.3980 N.am   96  LEU96      -0.1963
     31  CA        25.9730   45.6050   27.7580 C.3    96  LEU96       0.1728
     32  C         27.0360   45.4180   26.6880 C.2    96  LEU96       0.2617
     33  O         27.9600   44.6170   26.8490 O.2    96  LEU96      -0.2715
     34  CB        25.2400   44.2850   28.0080 C.3    96  LEU96       0.0311
     35  CG        24.3880   44.2810   29.2800 C.3    96  LEU96       0.0022
     36  CD1       23.6330   42.9620   29.3900 C.3    96  LEU96       0.0001
     37  CD2       25.2820   44.4880   30.4960 C.3    96  LEU96       0.0001
     38  N         26.9000   46.1630   25.5960 N.am   97  GLY97      -0.1940
     39  CA        27.8630   46.0880   24.5120 C.3    97  GLY97       0.2014
     40  C         27.8360   44.8060   23.6980 C.2    97  GLY97       0.2639
     41  O         28.8070   44.4930   23.0130 O.2    97  GLY97      -0.2714
     42  N         26.7320   44.0690   23.7630 N.am   98  ARG98      -0.1963
     43  CA        26.6150   42.8210   23.0250 C.3    98  ARG98       0.1729
     44  C         26.6460   43.0260   21.5090 C.2    98  ARG98       0.2616
     45  O         27.4160   42.3630   20.8040 O.2    98  ARG98      -0.2715
     46  CB        25.3390   42.0810   23.4570 C.3    98  ARG98       0.0348
     47  CG        25.3720   41.6590   24.9390 C.3    98  ARG98       0.0492
     48  CD        24.1180   40.9020   25.3670 C.3    98  ARG98       0.2205
     49  NE        22.9270   41.7520   25.3840 N.pl3  98  ARG98      -0.0865
     50  CZ        21.7050   41.3170   25.6750 C.cat  98  ARG98       0.5346
     51  NH1       21.5070   40.0400   25.9760 N.pl3  98  ARG98       0.1354
     52  NH2       20.6790   42.1580   25.6650 N.pl3  98  ARG98       0.1354
     53  N         25.8240   43.9410   20.9990 N.am   99  ASP99      -0.1971
     54  CA        25.8020   44.2050   19.5570 C.3    99  ASP99       0.1709
     55  C         27.1110   44.8650   19.1220 C.2    99  ASP99       0.2293
     56  O         27.6410   44.5680   18.0460 O.2    99  ASP99      -0.2864
     57  CB        24.6260   45.1170   19.1800 C.3    99  ASP99       0.1436
     58  CG        23.2780   44.4570   19.4060 C.2    99  ASP99       0.3671
     59  OD1       23.1290   43.2750   19.0110 O.co2  99  ASP99      -0.2456
     60  OD2       22.3740   45.1240   19.9650 O.co2  99  ASP99      -0.2456
     61  N         28.9210   54.6420   23.2070 N.3   112  LEU112     -0.1231
     62  CA        28.5290   55.7200   24.0960 C.3   112  LEU112      0.1693
     63  C         27.5870   55.1420   25.1480 C.2   112  LEU112      0.2592
     64  O         26.7300   54.3140   24.8370 O.2   112  LEU112     -0.2718
     65  CB        27.8280   56.8380   23.3200 C.3   112  LEU112      0.0284
     66  CG        28.7870   57.8880   22.7530 C.3   112  LEU112      0.0019
     67  CD1       29.6920   57.2420   21.7180 C.3   112  LEU112      0.0001
     68  CD2       27.9960   59.0390   22.1290 C.3   112  LEU112      0.0001
     69  N         27.7650   55.5580   26.3960 N.am  113  GLU113     -0.1966
     70  CA        26.9070   55.0970   27.4810 C.3   113  GLU113      0.1733
     71  C         26.8250   56.2020   28.5220 C.2   113  GLU113      0.2616
     72  O         27.8480   56.6800   29.0250 O.2   113  GLU113     -0.2715
     73  CB        27.4570   53.8200   28.1220 C.3   113  GLU113      0.0429
     74  CG        26.6180   53.3200   29.2980 C.3   113  GLU113      0.1163
     75  CD        25.1690   53.0670   28.9280 C.2   113  GLU113      0.3649
     76  OE1       24.9120   52.1950   28.0650 O.co2 113  GLU113     -0.2457
     77  OE2       24.2820   53.7420   29.4990 O.co2 113  GLU113     -0.2457
     78  N         25.6020   56.6030   28.8450 N.am  114  ARG114     -0.1963
     79  CA        25.3920   57.6750   29.8030 C.3   114  ARG114      0.1729
     80  C         25.0640   57.2090   31.2220 C.2   114  ARG114      0.2616
     81  O         25.1980   57.9830   32.1700 O.2   114  ARG114     -0.2715
     82  CB        24.2850   58.6040   29.3030 C.3   114  ARG114      0.0348
     83  CG        22.8950   57.9740   29.2590 C.3   114  ARG114      0.0492
     84  CD        21.8500   58.9990   28.8670 C.3   114  ARG114      0.2205
     85  NE        20.5210   58.4000   28.7980 N.pl3 114  ARG114     -0.0865
     86  CZ        19.4200   59.0570   28.4520 C.cat 114  ARG114      0.5346
     87  NH1       19.4790   60.3460   28.1370 N.pl3 114  ARG114      0.1354
     88  NH2       18.2570   58.4230   28.4230 N.pl3 114  ARG114      0.1354
     89  N         24.6080   55.9670   31.3730 N.am  115  ASN115     -0.1972
     90  CA        24.2960   55.4550   32.7080 C.3   115  ASN115      0.1688
     91  C         25.6190   55.1090   33.3830 C.2   115  ASN115      0.2292
     92  O         26.3370   54.2120   32.9370 O.2   115  ASN115     -0.2864
     93  CB        23.4170   54.2080   32.6260 C.3   115  ASN115      0.1181
     94  CG        22.9370   53.7510   33.9870 C.2   115  ASN115      0.2629
     95  OD1       23.7350   53.4430   34.8760 O.2   115  ASN115     -0.2716
     96  ND2       21.6260   53.7090   34.1590 N.am  115  ASN115     -0.0877
     97  N         26.0500   51.3530   34.2810 N.3   118  VAL118     -0.1245
     98  CA        26.2620   50.5540   33.0750 C.3   118  VAL118      0.1561
     99  C         27.6860   50.7680   32.5570 C.2   118  VAL118      0.2260
    100  O         28.3920   49.8120   32.2320 O.2   118  VAL118     -0.2867
    101  CB        25.2570   50.9340   31.9700 C.3   118  VAL118      0.0252
    102  CG1       25.5390   50.1300   30.6960 C.3   118  VAL118      0.0019
    103  CG2       23.8340   50.6570   32.4550 C.3   118  VAL118      0.0019
    104  N         29.2010   59.3500   27.8220 N.3   148  ALA148     -0.1231
    105  CA        28.5120   60.5830   27.4480 C.3   148  ALA148      0.1694
    106  C         27.0990   60.3000   26.9530 C.2   148  ALA148      0.2593
    107  O         26.7020   59.1430   26.7850 O.2   148  ALA148     -0.2718
    108  CB        29.2980   61.3170   26.3710 C.3   148  ALA148      0.0304
    109  N         26.3330   61.3600   26.7330 N.am  149  SER149     -0.1938
    110  CA        24.9720   61.2100   26.2430 C.3   149  SER149      0.2055
    111  C         24.9160   61.5230   24.7570 C.2   149  SER149      0.2644
    112  O         25.2330   62.6370   24.3350 O.2   149  SER149     -0.2714
    113  CB        24.0190   62.1380   26.9880 C.3   149  SER149      0.2130
    114  OG        22.7330   62.0820   26.3910 O.3   149  SER149     -0.2179
    115  N         24.4990   60.5360   23.9730 N.am  150  SER150     -0.1935
    116  CA        24.4070   60.6710   22.5250 C.3   150  SER150      0.2055
    117  C         23.4630   61.7830   22.0900 C.2   150  SER150      0.2642
    118  O         23.5260   62.2550   20.9540 O.2   150  SER150     -0.2714
    119  CB        23.9590   59.3420   21.9200 C.3   150  SER150      0.2130
    120  OG        24.9140   58.3340   22.1990 O.3   150  SER150     -0.2179
    121  N         22.5870   62.1950   22.9960 N.am  151  LEU151     -0.1977
    122  CA        21.6380   63.2560   22.7060 C.3   151  LEU151      0.1596
    123  C         22.3370   64.5830   22.4330 C.2   151  LEU151      0.2287
    124  O         21.8130   65.4300   21.7030 O.2   151  LEU151     -0.2864
    125  CB        20.6670   63.4120   23.8750 C.3   151  LEU151      0.0297
    126  CG        19.5150   62.4050   23.9000 C.3   151  LEU151      0.0022
    127  CD1       18.8510   62.3880   25.2710 C.3   151  LEU151      0.0001
    128  CD2       18.5140   62.7810   22.8190 C.3   151  LEU151      0.0001
    129  N         24.4050   53.2580   15.3350 N.3   165  TYR165     -0.1241
    130  CA        23.5080   52.2040   15.7890 C.3   165  TYR165      0.1605
    131  C         22.7500   52.6530   17.0250 C.2   165  TYR165      0.2264
    132  O         23.3500   53.1140   17.9960 O.2   165  TYR165     -0.2867
    133  CB        24.3040   50.9370   16.1080 C.3   165  TYR165      0.0534
    134  CG        23.4510   49.7970   16.6090 C.ar  165  TYR165     -0.0201
    135  CD1       22.4800   49.2220   15.7940 C.ar  165  TYR165     -0.0009
    136  CD2       23.6250   49.2780   17.8930 C.ar  165  TYR165     -0.0009
    137  CE1       21.7040   48.1540   16.2380 C.ar  165  TYR165      0.0417
    138  CE2       22.8550   48.2070   18.3470 C.ar  165  TYR165      0.0417
    139  CZ        21.8970   47.6510   17.5120 C.ar  165  TYR165      0.1957
    140  OH        21.1330   46.5900   17.9410 O.3   165  TYR165     -0.2866
    141  N         19.8260   51.5390   19.9400 N.3   167  ASP167     -0.1225
    142  CA        19.0100   50.5280   20.5940 C.3   167  ASP167      0.1790
    143  C         18.6790   50.9670   22.0110 C.2   167  ASP167      0.2439
    144  O         19.0330   50.2970   22.9810 O.2   167  ASP167     -0.2733
    145  CB        19.7200   49.1680   20.6300 C.3   167  ASP167      0.1423
    146  CG        18.8730   48.1000   21.3080 C.2   167  ASP167      0.3668
    147  OD1       17.6320   48.2150   21.2550 O.co2 167  ASP167     -0.2456
    148  OD2       19.4300   47.1490   21.8860 O.co2 167  ASP167     -0.2456
    149  N         17.9940   52.1100   22.1520 N.am  168  PRO168     -0.2729
    150  CA        17.6390   52.5940   23.4890 C.3   168  PRO168      0.1401
    151  C         16.6400   51.6440   24.1380 C.2   168  PRO168      0.2269
    152  O         15.9340   50.9140   23.4390 O.2   168  PRO168     -0.2865
    153  CB        17.0370   53.9670   23.2050 C.3   168  PRO168      0.0296
    154  CG        16.3380   53.7390   21.8970 C.3   168  PRO168      0.0237
    155  CD        17.3690   52.9420   21.1080 C.3   168  PRO168      0.0939
    156  N         19.2790   43.4080   34.4770 N.3   179  PHE179     -0.1241
    157  CA        19.6250   44.6120   33.7380 C.3   179  PHE179      0.1605
    158  C         18.4650   45.6000   33.6150 C.2   179  PHE179      0.2264
    159  O         18.6540   46.8060   33.7700 O.2   179  PHE179     -0.2867
    160  CB        20.1530   44.2390   32.3500 C.3   179  PHE179      0.0534
    161  CG        20.6640   45.4090   31.5630 C.ar  179  PHE179     -0.0203
    162  CD1       19.9020   45.9600   30.5440 C.ar  179  PHE179     -0.0042
    163  CD2       21.9090   45.9610   31.8440 C.ar  179  PHE179     -0.0042
    164  CE1       20.3730   47.0480   29.8080 C.ar  179  PHE179     -0.0003
    165  CE2       22.3910   47.0520   31.1140 C.ar  179  PHE179     -0.0003
    166  CZ        21.6220   47.5950   30.0950 C.ar  179  PHE179     -0.0000
    167  N         18.0690   49.5760   34.3420 N.3   183  VAL183     -0.1245
    168  CA        17.7930   50.4270   33.2020 C.3   183  VAL183      0.1561
    169  C         16.3380   50.4360   32.7690 C.2   183  VAL183      0.2260
    170  O         15.8560   49.5050   32.1260 O.2   183  VAL183     -0.2867
    171  CB        18.6620   49.9940   32.0220 C.3   183  VAL183      0.0252
    172  CG1       18.3530   50.8350   30.8010 C.3   183  VAL183      0.0019
    173  CG2       20.1290   50.1120   32.4160 C.3   183  VAL183      0.0019
    174  N         14.0790   54.5030   28.2180 N.3   186  ASP186     -0.1239
    175  CA        14.7840   55.7530   27.9690 C.3   186  ASP186      0.1674
    176  C         13.7260   56.7040   27.4150 C.2   186  ASP186      0.2266
    177  O         13.3930   56.6800   26.2280 O.2   186  ASP186     -0.2867
    178  CB        15.9310   55.5590   26.9730 C.3   186  ASP186      0.1410
    179  CG        17.1510   54.9090   27.6120 C.2   186  ASP186      0.3668
    180  OD1       17.6270   55.4260   28.6510 O.co2 186  ASP186     -0.2456
    181  OD2       17.6350   53.8890   27.0800 O.co2 186  ASP186     -0.2456
    182  N         13.6370   59.8240   26.6500 N.3   188  ASP188     -0.1225
    183  CA        14.0120   60.7730   25.6030 C.3   188  ASP188      0.1805
    184  C         14.6500   60.1000   24.3980 C.2   188  ASP188      0.2597
    185  O         15.3970   60.7350   23.6520 O.2   188  ASP188     -0.2718
    186  CB        15.0040   61.7960   26.1600 C.3   188  ASP188      0.1424
    187  CG        16.1590   61.1400   26.9110 C.2   188  ASP188      0.3668
    188  OD1       16.4070   59.9280   26.6960 O.co2 188  ASP188     -0.2456
    189  OD2       16.8160   61.8380   27.7090 O.co2 188  ASP188     -0.2456
    190  N         14.3600   58.8220   24.1960 N.am  189  ALA189     -0.1979
    191  CA        14.9610   58.0910   23.0880 C.3   189  ALA189      0.1597
    192  C         14.5940   58.6220   21.7030 C.2   189  ALA189      0.2287
    193  O         15.4380   58.6510   20.8110 O.2   189  ALA189     -0.2864
    194  CB        14.6100   56.6100   23.1910 C.3   189  ALA189      0.0319
    195  N         16.9700   60.7620   19.6190 N.3   192  LEU192     -0.1245
    196  CA        18.2440   60.2780   19.0760 C.3   192  LEU192      0.1561
    197  C         18.3050   60.1720   17.5530 C.2   192  LEU192      0.2260
    198  O         19.3760   60.2960   16.9660 O.2   192  LEU192     -0.2867
    199  CB        18.5930   58.9010   19.6650 C.3   192  LEU192      0.0270
    200  CG        19.1170   58.8640   21.1010 C.3   192  LEU192      0.0019
    201  CD1       18.2020   59.6910   21.9770 C.3   192  LEU192      0.0001
    202  CD2       19.1720   57.4320   21.5930 C.3   192  LEU192      0.0001
    203  N         17.2350   49.4330   16.4350 N.3   207  LYS207     -0.1245
    204  CA        16.6740   48.1450   16.8170 C.3   207  LYS207      0.1561
    205  C         15.2820   48.3880   17.3950 C.2   207  LYS207      0.2260
    206  O         15.0970   49.2740   18.2290 O.2   207  LYS207     -0.2867
    207  CB        17.5730   47.4540   17.8550 C.3   207  LYS207      0.0271
    208  CG        17.1390   46.0370   18.2070 C.3   207  LYS207      0.0035
    209  CD        18.1090   45.3760   19.1730 C.3   207  LYS207      0.0206
    210  CE        17.6620   43.9600   19.4920 C.3   207  LYS207      0.1093
    211  NZ        18.5990   43.2660   20.4230 N.3   207  LYS207     -0.1314
@<TRIPOS>BOND
     1   129   130    1
     2   130   133    1
     3   130   131    1
     4   135   137   ar
     5   135   134   ar
     6   133   134    1
     7   137   139   ar
     8   203   204    1
     9   134   136   ar
    10   204   205    1
    11   204   207    1
    12   198   197    2
    13   131   132    2
    14   205   206    2
    15   139   140    1
    16   139   138   ar
    17   197   196    1
    18   207   208    1
    19   136   138   ar
    20    56    55    2
    21   208   209    1
    22     1     2    1
    23    59    58   ar
    24   196   195    1
    25   196   199    1
    26     2     5    1
    27     2     3    1
    28    55    54    1
    29   209   210    1
    30    57    58    1
    31    57    54    1
    32    58    60   ar
    33   210   211    1
    34    54    53    1
    35   199   200    1
    36     5     6    1
    37     9     3   am
    38     9    10    1
    39    13    10    1
    40   141   142    1
    41     3     4    2
    42     8     6   ar
    43     6     7   ar
    44   142   145    1
    45   142   143    1
    46   145   146    1
    47    10    11    1
    48    45    44    2
    49   193   192    2
    50   118   117    2
    51    53    44   am
    52   200   202    1
    53   200   201    1
    54   155   154    1
    55   155   149    1
    56   147   146   ar
    57   146   148   ar
    58    44    43    1
    59   124   123    2
    60   192   191    1
    61    19    18    1
    62    67    66    1
    63   154   153    1
    64   119   120    1
    65   119   116    1
    66    11    14   am
    67    11    12    2
    68   143   149   am
    69   143   144    2
    70   117   116    1
    71   117   121   am
    72    14    15    1
    73    68    66    1
    74   149   150    1
    75   123   122    1
    76   116   115    1
    77    20    18    1
    78   122   121    1
    79   122   125    1
    80    66    65    1
    81   128   126    1
    82    18    15    1
    83    41    40    2
    84    43    46    1
    85    43    42    1
    86   191   194    1
    87   191   190    1
    88   153   150    1
    89    61    62    1
    90    15    16    1
    91    65    62    1
    92   152   151    2
    93    46    47    1
    94   150   151    1
    95   185   184    2
    96    17    16    2
    97    16    21   am
    98    40    42   am
    99    40    39    1
   100   125   126    1
   101   126   127    1
   102   115   111   am
   103    21    22    1
   104    62    63    1
   105   190   184   am
   106   112   111    2
   107   184   183    1
   108    22    25    1
   109    22    23    1
   110    39    38    1
   111   111   110    1
   112    64    63    2
   113    24    23    2
   114    47    48    1
   115    63    69   am
   116    23    26   am
   117    48    49    1
   118    49    50    2
   119    38    32   am
   120   183   186    1
   121   183   182    1
   122    52    50    1
   123    50    51    1
   124   186   187    1
   125   177   176    2
   126   110   109    1
   127   110   113    1
   128   108   105    1
   129   114   113    1
   130    69    70    1
   131    26    27    1
   132    32    33    2
   133    32    31    1
   134   188   187   ar
   135   109   106   am
   136   107   106    2
   137   187   189   ar
   138   106   105    1
   139   178   179    1
   140   178   175    1
   141   181   179   ar
   142    27    28    1
   143    30    28   am
   144    30    31    1
   145   176   175    1
   146   105   104    1
   147    70    73    1
   148    70    71    1
   149   179   180   ar
   150    28    29    2
   151    31    34    1
   152   175   174    1
   153    34    35    1
   154    76    75   ar
   155    73    74    1
   156    87    86    1
   157    88    86    1
   158    86    85    2
   159    71    78   am
   160    71    72    2
   161    85    84    1
   162    78    79    1
   163    84    83    1
   164    75    74    1
   165    75    77   ar
   166    83    82    1
   167    35    36    1
   168    35    37    1
   169    82    79    1
   170    79    80    1
   171   164   166   ar
   172   164   162   ar
   173   166   165   ar
   174   162   161   ar
   175   102   101    1
   176   172   171    1
   177   165   163   ar
   178    80    89   am
   179    80    81    2
   180    89    90    1
   181   161   163   ar
   182   161   160    1
   183   101   103    1
   184   101    98    1
   185   171   173    1
   186   171   168    1
   187   170   169    2
   188   100    99    2
   189   160   157    1
   190    99    98    1
   191    93    90    1
   192    93    94    1
   193    90    91    1
   194   169   168    1
   195    92    91    2
   196    98    97    1
   197   168   167    1
   198   158   157    1
   199   158   159    2
   200   157   156    1
   201    94    96   am
   202    94    95    2
