@<TRIPOS>MOLECULE
tmp/2oysA00.pdb
 116 114 0 0 0
SMALL
GASTEIGER

@<TRIPOS>ATOM
      1  N         15.6710   20.1540    3.6620 N.3    11  ASN11      -0.1240
      2  CA        15.9050   19.9820    2.2370 C.3    11  ASN11       0.1653
      3  C         15.5050   21.2620    1.5260 C.2    11  ASN11       0.2266
      4  O         14.3500   21.6880    1.5930 O.2    11  ASN11      -0.2867
      5  CB        15.0930   18.7920    1.7130 C.3    11  ASN11       0.1155
      6  CG        15.1320   18.6740    0.2050 C.2    11  ASN11       0.2627
      7  OD1       16.0440   19.1860   -0.4490 O.2    11  ASN11      -0.2716
      8  ND2       14.1480   17.9790   -0.3580 N.am   11  ASN11      -0.0877
      9  N         15.0280   21.8040   -1.5030 N.3    13  ASN13      -0.1225
     10  CA        14.0170   21.5670   -2.5330 C.3    13  ASN13       0.1785
     11  C         12.7870   20.8430   -2.0010 C.2    13  ASN13       0.2598
     12  O         12.0080   20.2910   -2.7700 O.2    13  ASN13      -0.2718
     13  CB        14.6270   20.7590   -3.6760 C.3    13  ASN13       0.1169
     14  CG        15.7910   21.4710   -4.3250 C.2    13  ASN13       0.2627
     15  OD1       15.6710   22.6270   -4.7370 O.2    13  ASN13      -0.2716
     16  ND2       16.9250   20.7860   -4.4280 N.am   13  ASN13      -0.0877
     17  N         12.6090   20.8650   -0.6850 N.am   14  SER14      -0.1938
     18  CA        11.4880   20.1810   -0.0440 C.3    14  SER14       0.2055
     19  C         10.0980   20.5060   -0.5760 C.2    14  SER14       0.2643
     20  O          9.7180   21.6700   -0.6850 O.2    14  SER14      -0.2714
     21  CB        11.5110   20.4570    1.4570 C.3    14  SER14       0.2130
     22  OG        10.3130   20.0240    2.0730 O.3    14  SER14      -0.2179
     23  N          9.3420   19.4610   -0.8980 N.am   15  LYS15      -0.1963
     24  CA         7.9800   19.6280   -1.3770 C.3    15  LYS15       0.1728
     25  C          7.1210   19.9310   -0.1430 C.2    15  LYS15       0.2616
     26  O          6.1090   20.6380   -0.2340 O.2    15  LYS15      -0.2715
     27  CB         7.4900   18.3540   -2.0720 C.3    15  LYS15       0.0311
     28  CG         8.3380   17.9380   -3.2770 C.3    15  LYS15       0.0038
     29  CD         8.3010   18.9950   -4.3700 C.3    15  LYS15       0.0206
     30  CE         9.2900   18.6850   -5.4910 C.3    15  LYS15       0.1093
     31  NZ        10.7040   18.6510   -4.9980 N.3    15  LYS15      -0.1314
     32  N          7.5350   19.4130    1.0140 N.am   16  THR16      -0.1951
     33  CA         6.8050   19.6540    2.2690 C.3    16  THR16       0.1897
     34  C          6.8120   21.1500    2.5610 C.2    16  THR16       0.2313
     35  O          5.7950   21.7330    2.9400 O.2    16  THR16      -0.2863
     36  CB         7.4640   18.9250    3.4710 C.3    16  THR16       0.1794
     37  OG1        7.4750   17.5060    3.2350 O.3    16  THR16      -0.2208
     38  CG2        6.6770   19.2090    4.7650 C.3    16  THR16       0.0378
     39  N          7.9180   15.9720    6.4690 N.3    87  PRO87      -0.2102
     40  CA         8.0820   15.1260    5.2960 C.3    87  PRO87       0.1504
     41  C          7.9530   13.7150    5.8630 C.2    87  PRO87       0.2576
     42  O          8.0820   13.5170    7.0740 O.2    87  PRO87      -0.2718
     43  CB         9.5210   15.4070    4.8700 C.3    87  PRO87       0.0282
     44  CG         9.7480   16.8140    5.3380 C.3    87  PRO87       0.0208
     45  CD         9.1100   16.8120    6.6910 C.3    87  PRO87       0.0893
     46  N          7.6770   12.7420    5.0080 N.am   88  VAL88      -0.1966
     47  CA         7.6120   11.3670    5.4590 C.3    88  VAL88       0.1727
     48  C          8.9680   10.7880    5.0520 C.2    88  VAL88       0.2616
     49  O          9.2250   10.5860    3.8680 O.2    88  VAL88      -0.2715
     50  CB         6.4610   10.5760    4.7680 C.3    88  VAL88       0.0290
     51  CG1        6.5950    9.0760    5.0820 C.3    88  VAL88       0.0023
     52  CG2        5.1020   11.0840    5.2630 C.3    88  VAL88       0.0023
     53  N          9.8470   10.5660    6.0290 N.am   89  TYR89      -0.1960
     54  CA        11.1860   10.0180    5.7650 C.3    89  TYR89       0.1771
     55  C         11.3200    8.6590    6.4450 C.2    89  TYR89       0.2619
     56  O         11.3770    8.5700    7.6760 O.2    89  TYR89      -0.2715
     57  CB        12.2730   10.9600    6.2970 C.3    89  TYR89       0.0574
     58  CG        12.4400   12.2710    5.5500 C.ar   89  TYR89      -0.0198
     59  CD1       13.0190   13.3720    6.1800 C.ar   89  TYR89      -0.0009
     60  CD2       12.0290   12.4140    4.2230 C.ar   89  TYR89      -0.0009
     61  CE1       13.1780   14.5810    5.5180 C.ar   89  TYR89       0.0417
     62  CE2       12.1890   13.6320    3.5440 C.ar   89  TYR89       0.0417
     63  CZ        12.7620   14.7080    4.2020 C.ar   89  TYR89       0.1957
     64  OH        12.9150   15.9250    3.5650 O.3    89  TYR89      -0.2866
     65  N         11.3970    7.6050    5.6350 N.am   90  LEU90      -0.1963
     66  CA        11.4820    6.2340    6.1390 C.3    90  LEU90       0.1728
     67  C         10.3250    5.9660    7.1100 C.2    90  LEU90       0.2616
     68  O         10.5200    5.5980    8.2670 O.2    90  LEU90      -0.2715
     69  CB        12.8520    5.9770    6.7880 C.3    90  LEU90       0.0311
     70  CG        14.0100    5.9930    5.7630 C.3    90  LEU90       0.0022
     71  CD1       14.8920    7.2050    6.0280 C.3    90  LEU90       0.0001
     72  CD2       14.8490    4.7100    5.8510 C.3    90  LEU90       0.0001
     73  N          9.1140    6.1720    6.6000 N.am   91  GLN91      -0.1977
     74  CA         7.8740    5.9600    7.3420 C.3    91  GLN91       0.1601
     75  C          7.8880    6.5470    8.7510 C.2    91  GLN91       0.2287
     76  O          7.4230    5.9040    9.6910 O.2    91  GLN91      -0.2864
     77  CB         7.5530    4.4540    7.4440 C.3    91  GLN91       0.0394
     78  CG         7.4790    3.6870    6.1230 C.3    91  GLN91       0.0908
     79  CD         8.8380    3.4860    5.4690 C.2    91  GLN91       0.2608
     80  OE1        9.8220    3.1410    6.1330 O.2    91  GLN91      -0.2717
     81  NE2        8.8950    3.6860    4.1580 N.am   91  GLN91      -0.0878
     82  N          3.9070   15.0080    3.9480 N.3   123  VAL123     -0.1231
     83  CA         4.0890   14.8340    2.5120 C.3   123  VAL123      0.1692
     84  C          4.9940   13.6420    2.2390 C.2   123  VAL123      0.2592
     85  O          6.1020   13.5520    2.7750 O.2   123  VAL123     -0.2718
     86  CB         4.7230   16.0990    1.9010 C.3   123  VAL123      0.0266
     87  CG1        4.9450   15.9200    0.4060 C.3   123  VAL123      0.0020
     88  CG2        3.8350   17.3000    2.1790 C.3   123  VAL123      0.0020
     89  N          4.5170   12.7350    1.3960 N.am  124  ALA124     -0.1966
     90  CA         5.2700   11.5340    1.0620 C.3   124  ALA124      0.1728
     91  C          5.2230   11.2450   -0.4250 C.2   124  ALA124      0.2616
     92  O          4.4690   11.8700   -1.1640 O.2   124  ALA124     -0.2715
     93  CB         4.7090   10.3450    1.8230 C.3   124  ALA124      0.0334
     94  N          6.0330   10.2870   -0.8550 N.am  125  GLU125     -0.1963
     95  CA         6.0580    9.8930   -2.2520 C.3   125  GLU125      0.1733
     96  C          4.8250    9.0220   -2.4990 C.2   125  GLU125      0.2617
     97  O          4.0460    9.2890   -3.4150 O.2   125  GLU125     -0.2715
     98  CB         7.3350    9.1030   -2.5600 C.3   125  GLU125      0.0429
     99  CG         7.4460    8.6090   -4.0000 C.3   125  GLU125      0.1163
    100  CD         7.5310    9.7430   -5.0030 C.2   125  GLU125      0.3649
    101  OE1        8.4450   10.5920   -4.8790 O.co2 125  GLU125     -0.2457
    102  OE2        6.6870    9.7870   -5.9260 O.co2 125  GLU125     -0.2457
    103  N          4.6370    8.0000   -1.6640 N.am  126  SER126     -0.1936
    104  CA         3.5000    7.0990   -1.8200 C.3   126  SER126      0.2055
    105  C          3.1610    6.1980   -0.6280 C.2   126  SER126      0.2643
    106  O          2.1710    5.4630   -0.6760 O.2   126  SER126     -0.2714
    107  CB         3.7270    6.2190   -3.0470 C.3   126  SER126      0.2130
    108  OG         4.9680    5.5420   -2.9400 O.3   126  SER126     -0.2179
    109  N          3.9700    6.2390    0.4310 N.am  127  ASN127     -0.1971
    110  CA         3.7180    5.3940    1.6050 C.3   127  ASN127      0.1688
    111  C          4.2240    5.9810    2.9280 C.2   127  ASN127      0.2292
    112  O          5.0280    6.9110    2.9400 O.2   127  ASN127     -0.2864
    113  CB         4.3520    4.0100    1.3960 C.3   127  ASN127      0.1181
    114  CG         5.8780    4.0480    1.4260 C.2   127  ASN127      0.2629
    115  OD1        6.4900    4.1740    2.4900 O.2   127  ASN127     -0.2716
    116  ND2        6.4970    3.9410    0.2550 N.am  127  ASN127     -0.0877
@<TRIPOS>BOND
     1   102   100   ar
     2    30    31    1
     3    30    29    1
     4   100   101   ar
     5   100    99    1
     6    15    14    2
     7    16    14   am
     8    29    28    1
     9    14    13    1
    10    99    98    1
    11    13    10    1
    12    97    96    2
    13    28    27    1
    14   107   108    1
    15   107   104    1
    16    12    11    2
    17    98    95    1
    18    10    11    1
    19    10     9    1
    20    96    95    1
    21    96   103   am
    22    95    94    1
    23    27    24    1
    24    11    17   am
    25   104   103    1
    26   104   105    1
    27    24    23    1
    28    24    25    1
    29    92    91    2
    30    23    19   am
    31    94    91   am
    32    20    19    2
    33    17    18    1
    34   106   105    2
    35   105   109   am
    36    19    18    1
    37     7     6    2
    38    91    90    1
    39     8     6   am
    40    26    25    2
    41    25    32   am
    42    18    21    1
    43     6     5    1
    44   116   114   am
    45    87    86    1
    46   109   110    1
    47    32    33    1
    48    90    89    1
    49    90    93    1
    50    89    84   am
    51   113   114    1
    52   113   110    1
    53   114   115    2
    54    21    22    1
    55     3     4    2
    56     3     2    1
    57   110   111    1
    58     5     2    1
    59    86    88    1
    60    86    83    1
    61     2     1    1
    62    84    83    1
    63    84    85    2
    64    33    34    1
    65    33    36    1
    66    83    82    1
    67    34    35    2
    68   111   112    2
    69    37    36    1
    70    36    38    1
    71    62    63   ar
    72    62    60   ar
    73    64    63    1
    74    49    48    2
    75    81    79   am
    76    63    61   ar
    77    60    58   ar
    78    50    51    1
    79    50    52    1
    80    50    47    1
    81    43    40    1
    82    43    44    1
    83    46    47    1
    84    46    41   am
    85    48    47    1
    86    48    53   am
    87    40    41    1
    88    40    39    1
    89    44    45    1
    90    79    78    1
    91    79    80    2
    92    61    59   ar
    93    58    59   ar
    94    58    57    1
    95    65    66    1
    96    65    55   am
    97    70    72    1
    98    70    71    1
    99    70    69    1
   100    54    53    1
   101    54    57    1
   102    54    55    1
   103    41    42    2
   104    78    77    1
   105    66    69    1
   106    66    67    1
   107    55    56    2
   108    39    45    1
   109    73    67   am
   110    73    74    1
   111    67    68    2
   112    74    77    1
   113    74    75    1
   114    75    76    2
