@<TRIPOS>MOLECULE
tmp/2oysA01.pdb
 74 70 0 0 0
SMALL
GASTEIGER

@<TRIPOS>ATOM
      1  N         17.8090   18.2760   20.9930 N.3    48  SER48      -0.1217
      2  CA        17.4780   18.0490   22.3890 C.3    48  SER48       0.1889
      3  C         18.4930   17.1240   23.0430 C.2    48  SER48       0.2288
      4  O         18.8250   16.0680   22.5040 O.2    48  SER48      -0.2866
      5  CB        16.0770   17.4430   22.4980 C.3    48  SER48       0.2089
      6  OG        15.7500   17.1620   23.8520 O.3    48  SER48      -0.2183
      7  N         18.3980   16.9910   26.7600 N.3    50  SER50      -0.1202
      8  CA        17.9690   16.9930   28.1540 C.3    50  SER50       0.2020
      9  C         17.8410   15.6060   28.7860 C.2    50  SER50       0.2619
     10  O         17.7130   14.5950   28.0930 O.2    50  SER50      -0.2717
     11  CB        16.6380   17.7400   28.2790 C.3    50  SER50       0.2103
     12  OG        15.6950   17.2460   27.3440 O.3    50  SER50      -0.2182
     13  N         17.8900   15.5790   30.1160 N.am   51  ASP51      -0.1959
     14  CA        17.7640   14.3470   30.8820 C.3    51  ASP51       0.1840
     15  C         16.3900   14.3030   31.5450 C.2    51  ASP51       0.2622
     16  O         15.9020   15.3140   32.0530 O.2    51  ASP51      -0.2715
     17  CB        18.8430   14.2710   31.9630 C.3    51  ASP51       0.1450
     18  CG        18.7760   12.9800   32.7660 C.2    51  ASP51       0.3671
     19  OD1       19.1550   11.9160   32.2340 O.co2  51  ASP51      -0.2456
     20  OD2       18.3330   13.0230   33.9290 O.co2  51  ASP51      -0.2456
     21  N         15.7810   13.1230   31.5470 N.am   52  SER52      -0.1950
     22  CA        14.4620   12.9270   32.1330 C.3    52  SER52       0.1924
     23  C         14.3440   13.5120   33.5390 C.2    52  SER52       0.2314
     24  O         13.4080   14.2560   33.8310 O.2    52  SER52      -0.2863
     25  CB        14.1370   11.4350   32.1780 C.3    52  SER52       0.2116
     26  OG        12.8090   11.2240   32.6240 O.3    52  SER52      -0.2180
     27  N         14.4910   17.3850   33.4640 N.3    55  LEU55      -0.1231
     28  CA        13.3860   17.8860   32.6590 C.3    55  LEU55       0.1693
     29  C         12.0120   17.7460   33.3220 C.2    55  LEU55       0.2592
     30  O         11.2590   18.7240   33.4200 O.2    55  LEU55      -0.2718
     31  CB        13.3690   17.1660   31.3080 C.3    55  LEU55       0.0284
     32  CG        13.1620   18.0330   30.0640 C.3    55  LEU55       0.0019
     33  CD1       13.0000   17.1330   28.8440 C.3    55  LEU55       0.0001
     34  CD2       11.9460   18.9160   30.2450 C.3    55  LEU55       0.0001
     35  N         11.6920   16.5340   33.7700 N.am   56  PHE56      -0.1976
     36  CA        10.3980   16.2410   34.3960 C.3    56  PHE56       0.1639
     37  C         10.3210   16.4050   35.9110 C.2    56  PHE56       0.2290
     38  O          9.3370   16.9380   36.4280 O.2    56  PHE56      -0.2864
     39  CB         9.9600   14.8170   34.0510 C.3    56  PHE56       0.0560
     40  CG         9.8010   14.5740   32.5830 C.ar   56  PHE56      -0.0200
     41  CD1       10.5090   13.5580   31.9580 C.ar   56  PHE56      -0.0042
     42  CD2        8.9440   15.3620   31.8240 C.ar   56  PHE56      -0.0042
     43  CE1       10.3660   13.3280   30.5890 C.ar   56  PHE56      -0.0003
     44  CE2        8.7950   15.1390   30.4570 C.ar   56  PHE56      -0.0003
     45  CZ         9.5070   14.1220   29.8400 C.ar   56  PHE56      -0.0000
     46  N         10.6760   16.7970   20.7100 N.3   102  GLU102     -0.1245
     47  CA        11.4810   16.5640   21.9110 C.3   102  GLU102      0.1567
     48  C         11.7600   17.8910   22.6390 C.2   102  GLU102      0.2260
     49  O         11.7850   17.9350   23.8750 O.2   102  GLU102     -0.2867
     50  CB        12.8030   15.8470   21.5610 C.3   102  GLU102      0.0388
     51  CG        12.6240   14.3460   21.2280 C.3   102  GLU102      0.1160
     52  CD        13.9350   13.6140   20.9710 C.2   102  GLU102      0.3649
     53  OE1       14.9610   14.0100   21.5560 O.co2 102  GLU102     -0.2457
     54  OE2       13.9410   12.6190   20.2060 O.co2 102  GLU102     -0.2457
     55  N          9.0940   18.3960   24.8730 N.3   105  GLY105     -0.1225
     56  CA         8.7670   17.1780   25.5940 C.3   105  GLY105      0.1811
     57  C          8.3960   17.4350   27.0410 C.2   105  GLY105      0.2280
     58  O          7.6400   16.6730   27.6390 O.2   105  GLY105     -0.2866
     59  N          4.8850   17.1720   27.9100 N.3   108  SER108     -0.1202
     60  CA         4.2730   15.8600   27.7380 C.3   108  SER108      0.2020
     61  C          3.1350   15.5570   28.6940 C.2   108  SER108      0.2618
     62  O          2.0850   15.0740   28.2790 O.2   108  SER108     -0.2717
     63  CB         5.3250   14.7600   27.8920 C.3   108  SER108      0.2103
     64  OG         6.2600   14.7880   26.8390 O.3   108  SER108     -0.2182
     65  N          3.3420   15.8250   29.9760 N.am  109  HIS109     -0.1975
     66  CA         2.3140   15.5210   30.9610 C.3   109  HIS109      0.1656
     67  C          1.7130   16.7550   31.6240 C.2   109  HIS109      0.2291
     68  O          1.2970   16.6910   32.7770 O.2   109  HIS109     -0.2864
     69  CB         2.8900   14.5970   32.0420 C.3   109  HIS109      0.0771
     70  CG         3.9090   13.6250   31.5290 C.ar  109  HIS109      0.0820
     71  ND1        3.6860   12.8100   30.4420 N.ar  109  HIS109     -0.2267
     72  CD2        5.1590   13.3300   31.9660 C.ar  109  HIS109      0.1154
     73  CE1        4.7500   12.0550   30.2300 C.ar  109  HIS109      0.1986
     74  NE2        5.6570   12.3520   31.1440 N.ar  109  HIS109     -0.2212
@<TRIPOS>BOND
     1    54    52   ar
     2    46    47    1
     3    52    51    1
     4    52    53   ar
     5     1     2    1
     6    51    50    1
     7    50    47    1
     8    47    48    1
     9     2     5    1
    10     2     3    1
    11     5     6    1
    12     4     3    2
    13    48    49    2
    14    55    56    1
    15    56    57    1
    16     7     8    1
    17    64    63    1
    18    57    58    2
    19    12    11    1
    20    60    63    1
    21    60    59    1
    22    60    61    1
    23    10     9    2
    24     8    11    1
    25     8     9    1
    26    62    61    2
    27    61    65   am
    28     9    13   am
    29    33    32    1
    30    45    44   ar
    31    45    43   ar
    32    65    66    1
    33    32    34    1
    34    32    31    1
    35    13    14    1
    36    73    71   ar
    37    73    74   ar
    38    71    70   ar
    39    44    42   ar
    40    43    41   ar
    41    14    15    1
    42    14    17    1
    43    66    67    1
    44    66    69    1
    45    74    72   ar
    46    31    28    1
    47    70    72   ar
    48    70    69    1
    49    15    21   am
    50    15    16    2
    51    21    22    1
    52    67    68    2
    53    42    40   ar
    54    41    40   ar
    55    17    18    1
    56    22    25    1
    57    22    23    1
    58    25    26    1
    59    19    18   ar
    60    40    39    1
    61    28    29    1
    62    28    27    1
    63    18    20   ar
    64    29    30    2
    65    29    35   am
    66    23    24    2
    67    35    36    1
    68    39    36    1
    69    36    37    1
    70    37    38    2
