@<TRIPOS>MOLECULE
tmp/2oyuA05.pdb
 232 222 0 0 0
SMALL
GASTEIGER

@<TRIPOS>ATOM
      1  N         18.5370   40.0380    7.2610 N.3    59  HIS59      -0.1241
      2  CA        18.1340   41.3540    6.7740 C.3    59  HIS59       0.1621
      3  C         16.9190   41.2290    5.8940 C.2    59  HIS59       0.2264
      4  O         16.0450   42.1090    5.8950 O.2    59  HIS59      -0.2867
      5  CB        19.2330   42.0360    5.9740 C.3    59  HIS59       0.0745
      6  CG        18.7840   43.3120    5.3340 C.ar   59  HIS59       0.0817
      7  ND1       19.1210   44.5540    5.8300 N.ar   59  HIS59      -0.2268
      8  CD2       17.9900   43.5380    4.2590 C.ar   59  HIS59       0.1154
      9  CE1       18.5700   45.4870    5.0750 C.ar   59  HIS59       0.1986
     10  NE2       17.8720   44.8980    4.1200 N.ar   59  HIS59      -0.2212
     11  N         12.9820   42.5680    6.2920 N.3    63  THR63      -0.1218
     12  CA        12.4670   43.5350    5.3240 C.3    63  THR63       0.1862
     13  C         11.3440   42.9720    4.4600 C.2    63  THR63       0.2287
     14  O         10.9030   43.6100    3.5020 O.2    63  THR63      -0.2866
     15  CB        13.5740   44.0690    4.4000 C.3    63  THR63       0.1770
     16  OG1       14.2810   42.9680    3.8170 O.3    63  THR63      -0.2211
     17  CG2       14.5430   44.9650    5.1700 C.3    63  THR63       0.0375
     18  N         13.1280   42.2690   20.2180 N.3    82  MET82      -0.1245
     19  CA        13.6950   43.5440   20.5630 C.3    82  MET82       0.1570
     20  C         14.7510   43.2990   21.6200 C.2    82  MET82       0.2261
     21  O         15.8150   43.8960   21.5740 O.2    82  MET82      -0.2867
     22  CB        12.6130   44.5040   21.0480 C.3    82  MET82       0.0387
     23  CG        13.0840   45.9380   21.2180 C.3    82  MET82       0.0595
     24  SD        13.9290   46.5520   19.7510 S.3    82  MET82      -0.1393
     25  CE        14.9030   47.8890   20.4430 C.3    82  MET82       0.0692
     26  N         17.7040   41.4490   19.7640 N.3    85  VAL85      -0.1245
     27  CA        18.4050   42.5070   19.0640 C.3    85  VAL85       0.1561
     28  C         19.3370   43.2680   20.0090 C.2    85  VAL85       0.2260
     29  O         20.5080   43.4750   19.6970 O.2    85  VAL85      -0.2867
     30  CB        17.4100   43.4740   18.3600 C.3    85  VAL85       0.0252
     31  CG1       18.0780   44.8080   18.0370 C.3    85  VAL85       0.0019
     32  CG2       16.8000   42.8120   17.0930 C.3    85  VAL85       0.0019
     33  N         23.6640   42.1140   19.9390 N.3    89  ARG89      -0.1245
     34  CA        24.2840   43.2270   19.2660 C.3    89  ARG89       0.1563
     35  C         25.2000   44.0140   20.2350 C.2    89  ARG89       0.2260
     36  O         26.4010   44.1550   19.9980 O.2    89  ARG89      -0.2867
     37  CB        23.1680   44.1190   18.7340 C.3    89  ARG89       0.0307
     38  CG        23.2180   44.3860   17.2540 C.3    89  ARG89       0.0489
     39  CD        22.5390   43.2960   16.4610 C.3    89  ARG89       0.2205
     40  NE        23.1380   43.1550   15.1330 N.pl3  89  ARG89      -0.0865
     41  CZ        22.6260   43.6520   14.0080 C.cat  89  ARG89       0.5346
     42  NH1       21.4820   44.3310   14.0150 N.pl3  89  ARG89       0.1354
     43  NH2       23.2650   43.4680   12.8670 N.pl3  89  ARG89       0.1354
     44  N         15.2050   54.5940    0.4090 N.3   161  GLN161     -0.1245
     45  CA        14.2280   54.3420    1.4860 C.3   161  GLN161      0.1566
     46  C         13.4220   55.5840    1.8750 C.2   161  GLN161      0.2260
     47  O         12.7340   55.5860    2.8890 O.2   161  GLN161     -0.2867
     48  CB        14.9110   53.7760    2.7410 C.3   161  GLN161      0.0367
     49  CG        16.0120   52.7450    2.5090 C.3   161  GLN161      0.0905
     50  CD        16.5740   52.1540    3.8120 C.2   161  GLN161      0.2608
     51  OE1       17.4150   51.2550    3.7750 O.2   161  GLN161     -0.2717
     52  NE2       16.1040   52.6470    4.9640 N.am  161  GLN161     -0.0878
     53  N         15.4590   55.5840   18.7680 N.3   314  ILE314     -0.1245
     54  CA        15.2520   54.1740   18.5460 C.3   314  ILE314      0.1561
     55  C         14.0010   53.9050   17.7140 C.2   314  ILE314      0.2260
     56  O         14.0550   53.1800   16.7160 O.2   314  ILE314     -0.2867
     57  CB        15.1800   53.4090   19.8830 C.3   314  ILE314      0.0252
     58  CG1       16.5800   53.2610   20.4790 C.3   314  ILE314      0.0019
     59  CG2       14.4650   52.0370   19.7210 C.3   314  ILE314      0.0019
     60  CD1       16.5680   52.7200   21.8970 C.3   314  ILE314      0.0001
     61  N         16.1190   55.0310   14.0400 N.3   318  VAL318     -0.1245
     62  CA        16.6880   53.7630   13.6060 C.3   318  VAL318      0.1561
     63  C         15.6370   52.9540   12.9010 C.2   318  VAL318      0.2260
     64  O         15.9590   52.1700   12.0080 O.2   318  VAL318     -0.2867
     65  CB        17.3510   52.9810   14.7530 C.3   318  VAL318      0.0252
     66  CG1       18.1700   51.8290   14.1990 C.3   318  VAL318      0.0019
     67  CG2       18.2830   53.9260   15.5410 C.3   318  VAL318      0.0019
     68  N         15.8940   54.1890    9.2670 N.3   321  LEU321     -0.1231
     69  CA        17.1760   53.7870    8.7250 C.3   321  LEU321      0.1693
     70  C         17.1120   52.3290    8.3200 C.2   321  LEU321      0.2593
     71  O         17.4540   51.9660    7.1980 O.2   321  LEU321     -0.2718
     72  CB        18.2170   53.9570    9.8150 C.3   321  LEU321      0.0284
     73  CG        19.6820   54.2330    9.5110 C.3   321  LEU321      0.0019
     74  CD1       19.8690   55.5480    8.7600 C.3   321  LEU321      0.0001
     75  CD2       20.4370   54.2510   10.8290 C.3   321  LEU321      0.0001
     76  N         16.6190   51.4970    9.2260 N.am  322  SER322     -0.1938
     77  CA        16.6300   50.0650    9.0290 C.3   322  SER322      0.2055
     78  C         15.6090   49.5470    8.0300 C.2   322  SER322      0.2644
     79  O         15.7210   48.4140    7.5690 O.2   322  SER322     -0.2714
     80  CB        16.4450   49.3630   10.3630 C.3   322  SER322      0.2130
     81  OG        15.1330   49.5240   10.8300 O.3   322  SER322     -0.2179
     82  N         14.6050   50.3440    7.6870 N.am  323  GLY323     -0.1939
     83  CA        13.5050   49.8370    6.8540 C.3   323  GLY323      0.2014
     84  C         12.9420   48.4970    7.3410 C.2   323  GLY323      0.2638
     85  O         12.4420   47.6880    6.5380 O.2   323  GLY323     -0.2714
     86  N         13.0140   48.2440    8.6500 N.am  324  TYR324     -0.1973
     87  CA        12.5090   46.9700    9.1790 C.3   324  TYR324      0.1639
     88  C         10.9830   46.9020    9.2230 C.2   324  TYR324      0.2290
     89  O         10.3050   47.9240    9.2890 O.2   324  TYR324     -0.2864
     90  CB        13.0590   46.6720   10.5740 C.3   324  TYR324      0.0560
     91  CG        14.4830   46.1810   10.6160 C.ar  324  TYR324     -0.0198
     92  CD1       15.1160   45.9810   11.8340 C.ar  324  TYR324     -0.0009
     93  CD2       15.2090   45.9460    9.4510 C.ar  324  TYR324     -0.0009
     94  CE1       16.4260   45.5480   11.9000 C.ar  324  TYR324      0.0417
     95  CE2       16.5380   45.5280    9.5090 C.ar  324  TYR324      0.0417
     96  CZ        17.1230   45.3250   10.7410 C.ar  324  TYR324      0.1957
     97  OH        18.4080   44.8900   10.8360 O.3   324  TYR324     -0.2866
     98  N         10.5470   48.5770   16.0390 N.3   328  LEU328     -0.1245
     99  CA        11.5100   48.7150   17.1280 C.3   328  LEU328      0.1561
    100  C         10.8470   49.3510   18.3210 C.2   328  LEU328      0.2260
    101  O          9.9060   50.1320   18.1670 O.2   328  LEU328     -0.2867
    102  CB        12.6820   49.5840   16.7020 C.3   328  LEU328      0.0270
    103  CG        13.1460   49.4630   15.2620 C.3   328  LEU328      0.0019
    104  CD1       14.2380   50.4320   15.0450 C.3   328  LEU328      0.0001
    105  CD2       13.6160   48.0650   14.9440 C.3   328  LEU328      0.0001
    106  N         33.6880   54.1050   15.5860 N.3   350  PHE350     -0.1241
    107  CA        32.3500   54.6790   15.5500 C.3   350  PHE350      0.1605
    108  C         32.4360   56.0860   14.9950 C.2   350  PHE350      0.2264
    109  O         31.7230   56.4580   14.0650 O.2   350  PHE350     -0.2867
    110  CB        31.7480   54.7160   16.9470 C.3   350  PHE350      0.0534
    111  CG        30.2570   54.9000   16.9630 C.ar  350  PHE350     -0.0203
    112  CD1       29.4740   54.4610   15.8990 C.ar  350  PHE350     -0.0042
    113  CD2       29.6320   55.4860   18.0620 C.ar  350  PHE350     -0.0042
    114  CE1       28.1030   54.6220   15.9130 C.ar  350  PHE350     -0.0003
    115  CE2       28.2600   55.6460   18.0900 C.ar  350  PHE350     -0.0003
    116  CZ        27.4890   55.2110   17.0070 C.ar  350  PHE350     -0.0000
    117  N         32.8520   55.7720   11.3390 N.3   353  LEU353     -0.1231
    118  CA        31.8270   55.1430   10.5070 C.3   353  LEU353      0.1693
    119  C         30.5810   56.0100   10.3670 C.2   353  LEU353      0.2592
    120  O         29.7330   55.7690    9.5140 O.2   353  LEU353     -0.2718
    121  CB        31.5000   53.7490   11.0350 C.3   353  LEU353      0.0284
    122  CG        30.1170   53.3090   11.5140 C.3   353  LEU353      0.0019
    123  CD1       30.1890   51.8400   11.8640 C.3   353  LEU353      0.0001
    124  CD2       29.6470   54.1320   12.6940 C.3   353  LEU353      0.0001
    125  N         30.4960   57.0420   11.1920 N.am  354  TYR354     -0.1976
    126  CA        29.3110   57.8740   11.2180 C.3   354  TYR354      0.1639
    127  C         29.4850   59.1390   10.3670 C.2   354  TYR354      0.2290
    128  O         28.7840   60.1380   10.5510 O.2   354  TYR354     -0.2864
    129  CB        28.9630   58.2070   12.6650 C.3   354  TYR354      0.0560
    130  CG        27.4990   58.0400   12.9940 C.ar  354  TYR354     -0.0198
    131  CD1       27.0950   57.4210   14.1680 C.ar  354  TYR354     -0.0009
    132  CD2       26.5200   58.5000   12.1250 C.ar  354  TYR354     -0.0009
    133  CE1       25.7570   57.2840   14.4700 C.ar  354  TYR354      0.0417
    134  CE2       25.1890   58.3690   12.4170 C.ar  354  TYR354      0.0417
    135  CZ        24.8040   57.7610   13.5800 C.ar  354  TYR354      0.1957
    136  OH        23.4550   57.6420   13.8360 O.3   354  TYR354     -0.2866
    137  N         28.4760   60.4560    7.5740 N.3   356  TRP356     -0.1241
    138  CA        27.3870   60.2260    6.6210 C.3   356  TRP356      0.1605
    139  C         27.1130   61.3790    5.6400 C.2   356  TRP356      0.2264
    140  O         25.9970   61.5340    5.1120 O.2   356  TRP356     -0.2867
    141  CB        26.1250   59.8250    7.3820 C.3   356  TRP356      0.0550
    142  CG        26.2460   58.4830    7.9860 C.ar  356  TRP356      0.0003
    143  CD1       27.2860   57.6160    7.8440 C.ar  356  TRP356      0.0946
    144  CD2       25.2760   57.8190    8.8000 C.ar  356  TRP356      0.0152
    145  NE1       27.0290   56.4600    8.5290 N.ar  356  TRP356     -0.2442
    146  CE2       25.8010   56.5560    9.1230 C.ar  356  TRP356      0.0810
    147  CE3       24.0110   58.1730    9.2890 C.ar  356  TRP356      0.0012
    148  CZ2       25.1180   55.6460    9.9180 C.ar  356  TRP356      0.0191
    149  CZ3       23.3260   57.2700   10.0700 C.ar  356  TRP356      0.0001
    150  CH2       23.8810   56.0160   10.3830 C.ar  356  TRP356      0.0015
    151  N         22.7400   46.0970    0.3270 N.3   482  HIS482     -0.1241
    152  CA        21.6800   45.1310    0.1720 C.3   482  HIS482      0.1621
    153  C         20.7190   45.7590   -0.8530 C.2   482  HIS482      0.2264
    154  O         20.8550   46.9480   -1.1840 O.2   482  HIS482     -0.2867
    155  CB        20.9540   44.8780    1.5040 C.3   482  HIS482      0.0745
    156  CG        21.7660   44.1400    2.5320 C.ar  482  HIS482      0.0817
    157  ND1       22.2050   44.7310    3.7000 N.ar  482  HIS482     -0.2268
    158  CD2       22.1810   42.8480    2.5860 C.ar  482  HIS482      0.1154
    159  CE1       22.8730   43.8430    4.4170 C.ar  482  HIS482      0.1986
    160  NE2       22.8720   42.6920    3.7670 N.ar  482  HIS482     -0.2212
    161  N         17.9610   47.7990   -2.2130 N.3   484  ASN484     -0.1225
    162  CA        17.1670   48.9410   -1.7660 C.3   484  ASN484      0.1785
    163  C         17.3840   49.3210   -0.3170 C.2   484  ASN484      0.2598
    164  O         16.4310   49.4810    0.4520 O.2   484  ASN484     -0.2718
    165  CB        15.6920   48.7110   -2.0500 C.3   484  ASN484      0.1169
    166  CG        15.4250   48.5240   -3.5180 C.2   484  ASN484      0.2627
    167  OD1       14.9790   47.4560   -3.9470 O.2   484  ASN484     -0.2716
    168  ND2       15.7300   49.5560   -4.3100 N.am  484  ASN484     -0.0877
    169  N         18.6590   49.4670    0.0280 N.am  485  SER485     -0.1938
    170  CA        19.0750   49.8740    1.3490 C.3   485  SER485      0.2055
    171  C         19.8590   51.1700    1.2780 C.2   485  SER485      0.2643
    172  O         20.3910   51.5350    0.2280 O.2   485  SER485     -0.2714
    173  CB        19.9580   48.7930    1.9520 C.3   485  SER485      0.2130
    174  OG        19.2660   47.5630    1.9900 O.3   485  SER485     -0.2179
    175  N         19.9400   51.8590    2.4050 N.am  486  ILE486     -0.1963
    176  CA        20.7280   53.0640    2.4740 C.3   486  ILE486      0.1727
    177  C         22.2310   52.7410    2.5070 C.2   486  ILE486      0.2616
    178  O         23.0400   53.5330    2.0350 O.2   486  ILE486     -0.2715
    179  CB        20.2990   53.9570    3.6560 C.3   486  ILE486      0.0290
    180  CG1       21.0560   55.2940    3.6150 C.3   486  ILE486      0.0022
    181  CG2       20.4740   53.2220    4.9800 C.3   486  ILE486      0.0023
    182  CD1       20.3450   56.4500    4.3200 C.3   486  ILE486      0.0001
    183  N         22.5880   51.5860    3.0650 N.am  487  PHE487     -0.1974
    184  CA        23.9750   51.1160    3.0690 C.3   487  PHE487      0.1639
    185  C         24.1150   49.5970    3.1150 C.2   487  PHE487      0.2290
    186  O         23.1290   48.8640    3.2170 O.2   487  PHE487     -0.2864
    187  CB        24.8340   51.7630    4.1800 C.3   487  PHE487      0.0560
    188  CG        24.0940   52.0730    5.4720 C.ar  487  PHE487     -0.0200
    189  CD1       24.2190   53.3320    6.0630 C.ar  487  PHE487     -0.0042
    190  CD2       23.3120   51.1170    6.1150 C.ar  487  PHE487     -0.0042
    191  CE1       23.5630   53.6350    7.2640 C.ar  487  PHE487     -0.0003
    192  CE2       22.6580   51.4200    7.3140 C.ar  487  PHE487     -0.0003
    193  CZ        22.7850   52.6820    7.8830 C.ar  487  PHE487     -0.0000
    194  N         28.2180   48.1560    7.2950 N.3   491  MET491     -0.1230
    195  CA        27.7810   49.3400    8.0090 C.3   491  MET491      0.1702
    196  C         26.7880   48.9590    9.0980 C.2   491  MET491      0.2592
    197  O         26.9040   49.4310   10.2290 O.2   491  MET491     -0.2718
    198  CB        27.1520   50.3450    7.0440 C.3   491  MET491      0.0401
    199  CG        26.7790   51.6740    7.6670 C.3   491  MET491      0.0596
    200  SD        28.2200   52.7040    8.0170 S.3   491  MET491     -0.1393
    201  CE        28.5620   53.4180    6.3990 C.3   491  MET491      0.0692
    202  N         25.8250   48.0970    8.7660 N.am  492  ILE492     -0.1980
    203  CA        24.7910   47.7210    9.7180 C.3   492  ILE492      0.1595
    204  C         25.4630   47.0420   10.8770 C.2   492  ILE492      0.2287
    205  O         25.2970   47.4520   12.0190 O.2   492  ILE492     -0.2864
    206  CB        23.8020   46.7150    9.1400 C.3   492  ILE492      0.0276
    207  CG1       23.3320   47.1330    7.7620 C.3   492  ILE492      0.0022
    208  CG2       22.6090   46.5120   10.0860 C.3   492  ILE492      0.0022
    209  CD1       22.9980   45.9440    6.9020 C.3   492  ILE492      0.0001
    210  N         27.7370   49.1530   12.8290 N.3   495  GLY495     -0.1210
    211  CA        27.0270   50.3410   13.3040 C.3   495  GLY495      0.1956
    212  C         26.1050   50.0670   14.4760 C.2   495  GLY495      0.2611
    213  O         26.0340   50.8610   15.4320 O.2   495  GLY495     -0.2717
    214  N         25.4170   48.9270   14.3960 N.am  496  ALA496     -0.1979
    215  CA        24.3660   48.5720   15.3350 C.3   496  ALA496      0.1597
    216  C         24.8590   48.5340   16.7750 C.2   496  ALA496      0.2287
    217  O         24.3930   49.3130   17.6280 O.2   496  ALA496     -0.2864
    218  CB        23.7560   47.2520   14.9450 C.3   496  ALA496      0.0319
    219  N         25.7350   51.9360   18.1990 N.3   499  SER499     -0.1202
    220  CA        24.4990   52.6800   18.4170 C.3   499  SER499      0.2020
    221  C         23.6430   52.1940   19.6000 C.2   499  SER499      0.2618
    222  O         23.1790   53.0200   20.3910 O.2   499  SER499     -0.2717
    223  CB        23.6670   52.7440   17.1370 C.3   499  SER499      0.2103
    224  OG        23.9740   53.9440   16.4610 O.3   499  SER499     -0.2182
    225  N         23.4330   50.8840   19.7260 N.am  500  LEU500     -0.1979
    226  CA        22.5570   50.3910   20.7750 C.3   500  LEU500      0.1596
    227  C         23.2080   50.5260   22.1290 C.2   500  LEU500      0.2287
    228  O         22.5440   50.9070   23.0980 O.2   500  LEU500     -0.2864
    229  CB        22.1520   48.9470   20.5300 C.3   500  LEU500      0.0297
    230  CG        21.3520   48.7550   19.2360 C.3   500  LEU500      0.0022
    231  CD1       21.1370   47.2920   18.9750 C.3   500  LEU500      0.0001
    232  CD2       20.0230   49.5150   19.2660 C.3   500  LEU500      0.0001
@<TRIPOS>BOND
     1   168   166   am
     2   167   166    2
     3   166   165    1
     4   161   162    1
     5   165   162    1
     6   162   163    1
     7   154   153    2
     8   153   152    1
     9   163   169   am
    10   163   164    2
    11   169   170    1
    12   152   151    1
    13   152   155    1
    14   172   171    2
    15    44    45    1
    16   171   170    1
    17   171   175   am
    18   170   173    1
    19    45    46    1
    20    45    48    1
    21   155   156    1
    22    46    47    2
    23   173   174    1
    24   178   177    2
    25   175   176    1
    26   176   177    1
    27   176   179    1
    28   177   183   am
    29    49    48    1
    30    49    50    1
    31   156   158   ar
    32   156   157   ar
    33   158   160   ar
    34   183   184    1
    35   184   185    1
    36   184   187    1
    37   185   186    2
    38    14    13    2
    39   180   179    1
    40   180   182    1
    41   179   181    1
    42   157   159   ar
    43   160   159   ar
    44    51    50    2
    45    50    52   am
    46    16    15    1
    47    10     8   ar
    48    10     9   ar
    49   187   188    1
    50     8     6   ar
    51    15    17    1
    52    15    12    1
    53    13    12    1
    54     9     7   ar
    55   140   139    2
    56    12    11    1
    57     6     7   ar
    58     6     5    1
    59   188   189   ar
    60   188   190   ar
    61   139   138    1
    62     3     4    2
    63     3     2    1
    64     5     2    1
    65   189   191   ar
    66   190   192   ar
    67   201   200    1
    68    85    84    2
    69   138   141    1
    70   138   137    1
    71     2     1    1
    72    83    84    1
    73    83    82    1
    74   209   207    1
    75   198   199    1
    76   198   195    1
    77    71    70    2
    78   191   193   ar
    79   194   195    1
    80   192   193   ar
    81    84    86   am
    82   141   142    1
    83    79    78    2
    84   199   200    1
    85    82    78   am
    86   207   206    1
    87   143   142   ar
    88   143   145   ar
    89   142   144   ar
    90   195   196    1
    91    78    77    1
    92    70    69    1
    93    70    76   am
    94   145   146   ar
    95    86    87    1
    96    69    68    1
    97    69    72    1
    98    74    73    1
    99   202   196   am
   100   202   203    1
   101   144   146   ar
   102   144   147   ar
   103    77    76    1
   104    77    80    1
   105   196   197    2
   106   146   148   ar
   107   206   203    1
   108   206   208    1
   109    87    88    1
   110    87    90    1
   111    88    89    2
   112   147   149   ar
   113    93    95   ar
   114    93    91   ar
   115    95    96   ar
   116    73    72    1
   117    73    75    1
   118   120   119    2
   119   203   204    1
   120   148   150   ar
   121   149   150   ar
   122    80    81    1
   123   119   118    1
   124   119   125   am
   125   127   128    2
   126   127   126    1
   127   118   121    1
   128   118   117    1
   129    90    91    1
   130    91    92   ar
   131    96    97    1
   132    96    94   ar
   133   204   205    2
   134   121   122    1
   135   125   126    1
   136   126   129    1
   137   122   123    1
   138   122   124    1
   139    92    94   ar
   140    64    63    2
   141   132   134   ar
   142   132   130   ar
   143   134   135   ar
   144   129   130    1
   145   210   211    1
   146    43    41    1
   147    63    62    1
   148   130   131   ar
   149   211   212    1
   150   135   136    1
   151   135   133   ar
   152    62    61    1
   153    62    65    1
   154    41    42    1
   155    41    40    2
   156   109   108    2
   157   131   133   ar
   158    66    65    1
   159   214   212   am
   160   214   215    1
   161   212   213    2
   162    65    67    1
   163   105   103    1
   164   218   215    1
   165   108   107    1
   166   104   103    1
   167    40    39    1
   168   103   102    1
   169   215   216    1
   170   107   106    1
   171   107   110    1
   172   112   114   ar
   173   112   111   ar
   174   114   116   ar
   175    98    99    1
   176   224   223    1
   177    39    38    1
   178   102    99    1
   179    56    55    2
   180   216   217    2
   181   110   111    1
   182   111   113   ar
   183   116   115   ar
   184    32    30    1
   185    99   100    1
   186   223   220    1
   187    38    37    1
   188    55    54    1
   189    31    30    1
   190   113   115   ar
   191   101   100    2
   192   219   220    1
   193    30    27    1
   194   220   221    1
   195    54    53    1
   196    54    57    1
   197    37    34    1
   198   231   230    1
   199    27    26    1
   200    27    28    1
   201   230   232    1
   202   230   229    1
   203    34    33    1
   204    34    35    1
   205   221   225   am
   206   221   222    2
   207    29    28    2
   208    59    57    1
   209   225   226    1
   210    24    25    1
   211    24    23    1
   212    57    58    1
   213    36    35    2
   214    18    19    1
   215    58    60    1
   216   229   226    1
   217    19    22    1
   218    19    20    1
   219   226   227    1
   220    22    23    1
   221    21    20    2
   222   227   228    2
