@<TRIPOS>MOLECULE
tmp/2oyyD00.pdb
 120 112 0 0 0
SMALL
GASTEIGER

@<TRIPOS>ATOM
      1  N        -28.4250   29.5830  -16.0100 N.3    19  VAL19      -0.1245
      2  CA       -28.1020   30.1620  -14.6880 C.3    19  VAL19       0.1561
      3  C        -28.0930   31.6820  -14.7580 C.2    19  VAL19       0.2260
      4  O        -28.3370   32.3640  -13.7580 O.2    19  VAL19      -0.2867
      5  CB       -26.7240   29.7060  -14.1640 C.3    19  VAL19       0.0252
      6  CG1      -26.4350   30.3170  -12.8050 C.3    19  VAL19       0.0019
      7  CG2      -26.6550   28.1980  -14.0830 C.3    19  VAL19       0.0019
      8  N        -31.5680   33.3340  -14.5630 N.3    22  SER22      -0.1202
      9  CA       -32.0290   33.2240  -13.1960 C.3    22  SER22       0.2020
     10  C        -31.5090   34.3530  -12.3060 C.2    22  SER22       0.2618
     11  O        -32.2270   34.8740  -11.4450 O.2    22  SER22      -0.2717
     12  CB       -31.6330   31.8760  -12.6400 C.3    22  SER22       0.2103
     13  OG       -32.1710   30.8640  -13.4610 O.3    22  SER22      -0.2182
     14  N        -30.2690   34.7480  -12.5420 N.am   23  ARG23      -0.1979
     15  CA       -29.6550   35.8120  -11.7780 C.3    23  ARG23       0.1597
     16  C        -30.0640   37.1910  -12.2670 C.2    23  ARG23       0.2287
     17  O        -30.3160   38.0890  -11.4670 O.2    23  ARG23      -0.2864
     18  CB       -28.1410   35.6760  -11.8330 C.3    23  ARG23       0.0334
     19  CG       -27.6250   34.4220  -11.1740 C.3    23  ARG23       0.0492
     20  CD       -26.1470   34.5030  -11.0440 C.3    23  ARG23       0.2205
     21  NE       -25.7520   35.5540  -10.1150 N.pl3  23  ARG23      -0.0865
     22  CZ       -24.4910   35.8530   -9.8290 C.cat  23  ARG23       0.5346
     23  NH1      -23.4990   35.1890  -10.4110 N.pl3  23  ARG23       0.1354
     24  NH2      -24.2220   36.8120   -8.9550 N.pl3  23  ARG23       0.1354
     25  N        -33.0270   38.5360  -10.8270 N.3    26  VAL26      -0.1245
     26  CA       -32.8070   39.0780   -9.4770 C.3    26  VAL26       0.1561
     27  C        -32.1110   40.4300   -9.5550 C.2    26  VAL26       0.2260
     28  O        -32.4460   41.3730   -8.8270 O.2    26  VAL26      -0.2867
     29  CB       -31.9160   38.1670   -8.6060 C.3    26  VAL26       0.0252
     30  CG1      -31.8770   38.7060   -7.1890 C.3    26  VAL26       0.0019
     31  CG2      -32.4140   36.7360   -8.6230 C.3    26  VAL26       0.0019
     32  N        -33.8400   43.6400   -7.9400 N.3    30  GLN30      -0.1245
     33  CA       -33.0090   44.2760   -6.9240 C.3    30  GLN30       0.1566
     34  C        -31.7130   44.7670   -7.5700 C.2    30  GLN30       0.2260
     35  O        -30.7780   43.9890   -7.7620 O.2    30  GLN30      -0.2867
     36  CB       -32.7540   43.3240   -5.7440 C.3    30  GLN30       0.0367
     37  CG       -31.9600   43.9410   -4.6130 C.3    30  GLN30       0.0905
     38  CD       -32.3850   45.3640   -4.3100 C.2    30  GLN30       0.2608
     39  OE1      -31.9850   46.3010   -5.0030 O.2    30  GLN30      -0.2717
     40  NE2      -33.1880   45.5360   -3.2650 N.am   30  GLN30      -0.0878
     41  N        -27.7940   43.0140   -2.4540 N.3    36  ARG36      -0.1231
     42  CA       -27.5910   41.7120   -3.0980 C.3    36  ARG36       0.1694
     43  C        -26.5210   40.8840   -2.4070 C.2    36  ARG36       0.2592
     44  O        -26.6800   39.6840   -2.2640 O.2    36  ARG36      -0.2718
     45  CB       -27.2300   41.8760   -4.5700 C.3    36  ARG36       0.0321
     46  CG       -28.3970   42.2950   -5.4170 C.3    36  ARG36       0.0489
     47  CD       -28.3430   41.6030   -6.7520 C.3    36  ARG36       0.2205
     48  NE       -27.2140   42.0590   -7.5520 N.pl3  36  ARG36      -0.0865
     49  CZ       -27.1880   43.2140   -8.2140 C.cat  36  ARG36       0.5346
     50  NH1      -28.2280   44.0410   -8.1620 N.pl3  36  ARG36       0.1354
     51  NH2      -26.1140   43.5450   -8.9210 N.pl3  36  ARG36       0.1354
     52  N        -25.4430   41.5380   -1.9790 N.am   37  ASP37      -0.1974
     53  CA       -24.3770   40.8880   -1.2280 C.3    37  ASP37       0.1709
     54  C        -24.8640   40.4180    0.1450 C.2    37  ASP37       0.2293
     55  O        -24.5790   39.2830    0.5520 O.2    37  ASP37      -0.2864
     56  CB       -23.1750   41.8290   -1.0670 C.3    37  ASP37       0.1436
     57  CG       -22.6130   42.3220   -2.4030 C.2    37  ASP37       0.3671
     58  OD1      -23.0480   41.8380   -3.4870 O.co2  37  ASP37      -0.2456
     59  OD2      -21.7170   43.2030   -2.3640 O.co2  37  ASP37      -0.2456
     60  N        -27.8730   39.6870    1.1010 N.3    39  LEU39      -0.1231
     61  CA       -28.7830   38.5560    0.8970 C.3    39  LEU39       0.1693
     62  C        -28.0550   37.3030    0.4330 C.2    39  LEU39       0.2591
     63  O        -28.4640   36.1840    0.7700 O.2    39  LEU39      -0.2718
     64  CB       -29.8920   38.9060   -0.0970 C.3    39  LEU39       0.0284
     65  CG       -30.8580   40.0620    0.1910 C.3    39  LEU39       0.0019
     66  CD1      -32.1540   39.8510   -0.5880 C.3    39  LEU39       0.0001
     67  CD2      -31.1630   40.2080    1.6740 C.3    39  LEU39       0.0001
     68  N        -26.9900   37.4890   -0.3440 N.am   40  ARG40      -0.1980
     69  CA       -26.1440   36.3740   -0.7800 C.3    40  ARG40       0.1597
     70  C        -25.6590   35.5470    0.4180 C.2    40  ARG40       0.2287
     71  O        -25.8020   34.3140    0.4290 O.2    40  ARG40      -0.2864
     72  CB       -24.9430   36.8850   -1.5850 C.3    40  ARG40       0.0334
     73  CG       -23.8250   35.8730   -1.8130 C.3    40  ARG40       0.0492
     74  CD       -24.2610   34.7650   -2.7550 C.3    40  ARG40       0.2205
     75  NE       -23.2480   33.7170   -2.8600 N.pl3  40  ARG40      -0.0865
     76  CZ       -23.4850   32.5010   -3.3260 C.cat  40  ARG40       0.5346
     77  NH1      -24.7020   32.1770   -3.7350 N.pl3  40  ARG40       0.1354
     78  NH2      -22.5130   31.6020   -3.3670 N.pl3  40  ARG40       0.1354
     79  N        -28.6590   33.3320    1.6930 N.3    43  TYR43      -0.1227
     80  CA       -29.2050   32.1970    0.9750 C.3    43  TYR43       0.1736
     81  C        -28.1810   31.1150    0.7100 C.2    43  TYR43       0.2595
     82  O        -28.5230   29.9330    0.6830 O.2    43  TYR43      -0.2718
     83  CB       -29.9520   32.6200   -0.3140 C.3    43  TYR43       0.0548
     84  CG       -29.1080   32.7930   -1.5540 C.ar   43  TYR43      -0.0200
     85  CD1      -28.6810   34.0450   -1.9500 C.ar   43  TYR43      -0.0009
     86  CD2      -28.7520   31.6920   -2.3430 C.ar   43  TYR43      -0.0009
     87  CE1      -27.9110   34.2070   -3.0800 C.ar   43  TYR43       0.0417
     88  CE2      -27.9770   31.8500   -3.4720 C.ar   43  TYR43       0.0417
     89  CZ       -27.5590   33.1140   -3.8400 C.ar   43  TYR43       0.1957
     90  OH       -26.7790   33.2730   -4.9670 O.3    43  TYR43      -0.2866
     91  N        -26.9250   31.5020    0.5370 N.am   44  GLU44      -0.1979
     92  CA       -25.8950   30.5470    0.1430 C.3    44  GLU44       0.1602
     93  C        -25.7030   29.4310    1.1790 C.2    44  GLU44       0.2287
     94  O        -25.1540   28.3680    0.8690 O.2    44  GLU44      -0.2864
     95  CB       -24.5750   31.2590   -0.1810 C.3    44  GLU44       0.0415
     96  CG       -23.6740   31.5440    1.0160 C.3    44  GLU44       0.1163
     97  CD       -22.4400   32.3280    0.6450 C.2    44  GLU44       0.3649
     98  OE1      -21.6530   31.8750   -0.2120 O.co2  44  GLU44      -0.2457
     99  OE2      -22.2530   33.4080    1.2250 O.co2  44  GLU44      -0.2457
    100  N        -33.2920   27.7800   -5.9870 N.3    53  VAL53      -0.1245
    101  CA       -32.4490   28.3280   -7.0340 C.3    53  VAL53       0.1561
    102  C        -32.3820   27.3370   -8.1900 C.2    53  VAL53       0.2260
    103  O        -32.7200   27.6790   -9.3240 O.2    53  VAL53      -0.2867
    104  CB       -31.0550   28.6290   -6.4710 C.3    53  VAL53       0.0252
    105  CG1      -30.0240   28.7070   -7.5750 C.3    53  VAL53       0.0019
    106  CG2      -31.1030   29.8990   -5.6500 C.3    53  VAL53       0.0019
    107  N        -35.2350   27.2190  -10.4020 N.3    56  VAL56      -0.1231
    108  CA       -35.3550   28.3720  -11.3070 C.3    56  VAL56       0.1692
    109  C        -34.5680   28.1600  -12.5860 C.2    56  VAL56       0.2591
    110  O        -34.9890   28.5990  -13.6440 O.2    56  VAL56      -0.2718
    111  CB       -34.9060   29.7150  -10.6510 C.3    56  VAL56       0.0266
    112  CG1      -35.2390   30.8990  -11.5570 C.3    56  VAL56       0.0020
    113  CG2      -35.5720   29.9060   -9.2930 C.3    56  VAL56       0.0020
    114  N        -33.4200   27.4980  -12.4860 N.am   57  VAL57      -0.1980
    115  CA       -32.6330   27.2380  -13.6910 C.3    57  VAL57       0.1595
    116  C        -33.2750   26.0960  -14.4560 C.2    57  VAL57       0.2287
    117  O        -33.2900   26.0860  -15.6750 O.2    57  VAL57      -0.2864
    118  CB       -31.0990   27.0250  -13.4200 C.3    57  VAL57       0.0276
    119  CG1      -30.7780   27.1010  -11.9260 C.3    57  VAL57       0.0022
    120  CG2      -30.6170   25.7310  -13.9970 C.3    57  VAL57       0.0022
@<TRIPOS>BOND
     1     1     2    1
     2   117   116    2
     3     3     2    1
     4     3     4    2
     5     2     5    1
     6     8     9    1
     7   116   115    1
     8     5     7    1
     9     5     6    1
    10   120   118    1
    11   115   118    1
    12   115   114    1
    13   110   109    2
    14    13    12    1
    15   118   119    1
    16     9    12    1
    17     9    10    1
    18   109   114   am
    19   109   108    1
    20    14    10   am
    21    14    15    1
    22    10    11    2
    23    16    15    1
    24    16    17    2
    25    18    15    1
    26    18    19    1
    27   112   111    1
    28   108   111    1
    29   108   107    1
    30    19    20    1
    31    20    21    1
    32    25    26    1
    33   111   113    1
    34    23    22    1
    35    21    22    2
    36    22    24    1
    37    27    26    1
    38    27    28    2
    39    26    29    1
    40   103   102    2
    41    51    49    1
    42    31    29    1
    43    29    30    1
    44    49    50    1
    45    49    48    2
    46   102   101    1
    47    32    33    1
    48    35    34    2
    49   105   104    1
    50    34    33    1
    51    48    47    1
    52   101   104    1
    53   101   100    1
    54    33    36    1
    55    47    46    1
    56   104   106    1
    57    36    37    1
    58    46    45    1
    59    39    38    2
    60    90    89    1
    61    37    38    1
    62    45    42    1
    63    38    40   am
    64    89    88   ar
    65    89    87   ar
    66    77    76    1
    67    58    57   ar
    68    88    86   ar
    69    78    76    1
    70    76    75    2
    71    42    41    1
    72    42    43    1
    73    87    85   ar
    74    75    74    1
    75    74    73    1
    76    43    44    2
    77    43    52   am
    78    57    59   ar
    79    57    56    1
    80    86    84   ar
    81    52    53    1
    82    85    84   ar
    83    73    72    1
    84    72    69    1
    85    84    83    1
    86    53    56    1
    87    53    54    1
    88    69    68    1
    89    69    70    1
    90    66    65    1
    91    68    62   am
    92    83    80    1
    93    98    97   ar
    94    95    92    1
    95    95    96    1
    96    64    65    1
    97    64    61    1
    98    92    91    1
    99    92    93    1
   100    54    55    2
   101    65    67    1
   102    70    71    2
   103    62    63    2
   104    62    61    1
   105    91    81   am
   106    97    96    1
   107    97    99   ar
   108    82    81    2
   109    81    80    1
   110    94    93    2
   111    61    60    1
   112    80    79    1
