@<TRIPOS>MOLECULE
tmp/2oz4B00.pdb
 93 89 0 0 0
SMALL
GASTEIGER

@<TRIPOS>ATOM
      1  N        -70.7230    2.2820   53.0820 N.3    40  ILE40      -0.1245
      2  CA       -71.7720    1.2670   53.1200 C.3    40  ILE40       0.1561
      3  C        -71.2870   -0.0540   52.5060 C.2    40  ILE40       0.2260
      4  O        -70.5240   -0.0550   51.5380 O.2    40  ILE40      -0.2867
      5  CB       -73.0720    1.7640   52.4220 C.3    40  ILE40       0.0252
      6  CG1      -74.2480    0.8220   52.7170 C.3    40  ILE40       0.0019
      7  CG2      -72.8610    1.9100   50.9170 C.3    40  ILE40       0.0019
      8  CD1      -74.5380    0.6280   54.2030 C.3    40  ILE40       0.0001
      9  N        -68.8710   10.4290   51.7730 N.3    83  ILE83      -0.1245
     10  CA       -70.1100    9.8920   52.3440 C.3    83  ILE83       0.1561
     11  C        -69.8350    8.5570   53.0340 C.2    83  ILE83       0.2260
     12  O        -69.3940    7.5930   52.4040 O.2    83  ILE83      -0.2867
     13  CB       -71.2480    9.7250   51.2890 C.3    83  ILE83       0.0252
     14  CG1      -70.8150    8.8290   50.1190 C.3    83  ILE83       0.0019
     15  CG2      -71.6980   11.0810   50.7760 C.3    83  ILE83       0.0019
     16  CD1      -71.8540    8.7160   49.0320 C.3    83  ILE83       0.0001
     17  N        -73.0570   10.3720   60.6540 N.3   103  LYS103     -0.1245
     18  CA       -73.2740   10.0970   59.2390 C.3   103  LYS103      0.1561
     19  C        -73.0650   11.3620   58.4120 C.2   103  LYS103      0.2260
     20  O        -73.7250   12.3760   58.6420 O.2   103  LYS103     -0.2867
     21  CB       -74.6870    9.5630   59.0270 C.3   103  LYS103      0.0271
     22  CG       -74.9890    9.1600   57.5990 C.3   103  LYS103      0.0035
     23  CD       -76.2600    8.3440   57.5330 C.3   103  LYS103      0.0206
     24  CE       -76.6980    8.1230   56.1040 C.3   103  LYS103      0.1093
     25  NZ       -77.1310    9.3880   55.4430 N.3   103  LYS103     -0.1314
     26  N        -73.6350   13.2230   55.1010 N.3   105  GLU105     -0.1245
     27  CA       -74.4070   13.3350   53.8610 C.3   105  GLU105      0.1567
     28  C        -73.8620   14.4870   53.0260 C.2   105  GLU105      0.2260
     29  O        -73.2580   15.4170   53.5620 O.2   105  GLU105     -0.2867
     30  CB       -75.8860   13.5900   54.1640 C.3   105  GLU105      0.0388
     31  CG       -76.6150   12.4190   54.8070 C.3   105  GLU105      0.1160
     32  CD       -78.0550   12.7520   55.1830 C.2   105  GLU105      0.3649
     33  OE1      -78.5110   13.8810   54.8960 O.co2 105  GLU105     -0.2457
     34  OE2      -78.7310   11.8810   55.7690 O.co2 105  GLU105     -0.2457
     35  N        -83.4950   13.2990   48.1100 N.3   142  LYS142     -0.1245
     36  CA       -83.9770   11.9370   48.3510 C.3   142  LYS142      0.1561
     37  C        -85.4990   11.8500   48.4170 C.2   142  LYS142      0.2260
     38  O        -86.0820   10.8690   47.9610 O.2   142  LYS142     -0.2867
     39  CB       -83.3750   11.3860   49.6520 C.3   142  LYS142      0.0271
     40  CG       -83.7760    9.9460   49.9740 C.3   142  LYS142      0.0035
     41  CD       -83.0900    9.4340   51.2330 C.3   142  LYS142      0.0206
     42  CE       -83.5940    8.0490   51.6120 C.3   142  LYS142      0.1093
     43  NZ       -82.8520    7.4750   52.7700 N.3   142  LYS142     -0.1314
     44  N        -84.8770    2.6960   48.5080 N.3   163  TRP163     -0.1227
     45  CA       -83.9450    3.7100   48.0230 C.3   163  TRP163      0.1737
     46  C        -82.5310    3.1480   48.0240 C.2   163  TRP163      0.2596
     47  O        -82.1760    2.3490   48.8910 O.2   163  TRP163     -0.2718
     48  CB       -83.9820    4.9560   48.9160 C.3   163  TRP163      0.0564
     49  CG       -85.1350    5.8790   48.6590 C.ar  163  TRP163      0.0003
     50  CD1      -85.1060    7.0440   47.9490 C.ar  163  TRP163      0.0946
     51  CD2      -86.4810    5.7270   49.1270 C.ar  163  TRP163      0.0152
     52  NE1      -86.3510    7.6250   47.9400 N.ar  163  TRP163     -0.2442
     53  CE2      -87.2140    6.8380   48.6560 C.ar  163  TRP163      0.0810
     54  CE3      -87.1390    4.7600   49.8970 C.ar  163  TRP163      0.0012
     55  CZ2      -88.5740    7.0070   48.9270 C.ar  163  TRP163      0.0191
     56  CZ3      -88.4900    4.9290   50.1660 C.ar  163  TRP163      0.0001
     57  CH2      -89.1930    6.0440   49.6810 C.ar  163  TRP163      0.0015
     58  N        -81.7210    3.5720   47.0590 N.am  164  THR164     -0.1939
     59  CA       -80.3020    3.2440   47.0680 C.3   164  THR164      0.2028
     60  C        -79.5800    4.1680   48.0310 C.2   164  THR164      0.2642
     61  O        -80.1410    5.1590   48.5060 O.2   164  THR164     -0.2714
     62  CB       -79.6480    3.4050   45.6770 C.3   164  THR164      0.1808
     63  OG1      -79.7500    4.7680   45.2470 O.3   164  THR164     -0.2208
     64  CG2      -80.3080    2.4970   44.6580 C.3   164  THR164      0.0379
     65  N        -78.3260    3.8350   48.3110 N.am  165  ASP165     -0.1957
     66  CA       -77.4410    4.7270   49.0410 C.3   165  ASP165      0.1840
     67  C        -77.1240    5.9320   48.1620 C.2   165  ASP165      0.2621
     68  O        -77.2720    5.8730   46.9400 O.2   165  ASP165     -0.2715
     69  CB       -76.1520    4.0000   49.4280 C.3   165  ASP165      0.1450
     70  CG       -76.4040    2.8040   50.3280 C.2   165  ASP165      0.3671
     71  OD1      -76.8810    3.0030   51.4650 O.co2 165  ASP165     -0.2456
     72  OD2      -76.1270    1.6640   49.8980 O.co2 165  ASP165     -0.2456
     73  N        -76.7080    7.0290   48.7830 N.am  166  GLN166     -0.1977
     74  CA       -76.2570    8.1920   48.0370 C.3   166  GLN166      0.1601
     75  C        -75.0200    7.7980   47.2360 C.2   166  GLN166      0.2287
     76  O        -74.1330    7.1190   47.7540 O.2   166  GLN166     -0.2864
     77  CB       -75.9450    9.3500   48.9850 C.3   166  GLN166      0.0394
     78  CG       -75.7020   10.6730   48.2820 C.3   166  GLN166      0.0908
     79  CD       -75.7390   11.8590   49.2280 C.2   166  GLN166      0.2608
     80  OE1      -75.3830   11.7460   50.4030 O.2   166  GLN166     -0.2717
     81  NE2      -76.1660   13.0080   48.7160 N.am  166  GLN166     -0.0878
     82  N        -79.6400    9.9650   44.2720 N.3   173  TYR173     -0.1241
     83  CA       -80.3370    8.8000   44.8010 C.3   173  TYR173      0.1605
     84  C        -81.0780    8.0850   43.6850 C.2   173  TYR173      0.2264
     85  O        -81.2910    8.6430   42.6070 O.2   173  TYR173     -0.2867
     86  CB       -81.3340    9.2210   45.8780 C.3   173  TYR173      0.0534
     87  CG       -80.6900    9.7900   47.1170 C.ar  173  TYR173     -0.0201
     88  CD1      -80.3580    8.9680   48.1900 C.ar  173  TYR173     -0.0009
     89  CD2      -80.4130   11.1500   47.2210 C.ar  173  TYR173     -0.0009
     90  CE1      -79.7690    9.4840   49.3310 C.ar  173  TYR173      0.0417
     91  CE2      -79.8210   11.6780   48.3600 C.ar  173  TYR173      0.0417
     92  CZ       -79.5020   10.8410   49.4130 C.ar  173  TYR173      0.1957
     93  OH       -78.9170   11.3590   50.5450 O.3   173  TYR173     -0.2866
@<TRIPOS>BOND
     1    85    84    2
     2    84    83    1
     3    82    83    1
     4    64    62    1
     5    83    86    1
     6    63    62    1
     7    62    59    1
     8    86    87    1
     9    68    67    2
    10    58    59    1
    11    58    46   am
    12    59    60    1
    13    87    89   ar
    14    87    88   ar
    15    89    91   ar
    16    75    76    2
    17    75    74    1
    18    52    50   ar
    19    52    53   ar
    20    50    49   ar
    21    38    37    2
    22    45    46    1
    23    45    44    1
    24    45    48    1
    25    46    47    2
    26    60    65   am
    27    60    61    2
    28    74    73    1
    29    74    77    1
    30    35    36    1
    31    67    73   am
    32    67    66    1
    33    88    90   ar
    34    78    77    1
    35    78    79    1
    36    65    66    1
    37    36    37    1
    38    36    39    1
    39    91    92   ar
    40    53    55   ar
    41    53    51   ar
    42    49    48    1
    43    49    51   ar
    44    81    79   am
    45    55    57   ar
    46    16    14    1
    47    66    69    1
    48    51    54   ar
    49    79    80    2
    50    90    92   ar
    51    92    93    1
    52    69    70    1
    53    39    40    1
    54    57    56   ar
    55    54    56   ar
    56    72    70   ar
    57    40    41    1
    58    14    13    1
    59    70    71   ar
    60    15    13    1
    61     7     5    1
    62    41    42    1
    63    13    10    1
    64     4     3    2
    65    42    43    1
    66     9    10    1
    67    10    11    1
    68    12    11    2
    69     5     6    1
    70     5     2    1
    71     3     2    1
    72     6     8    1
    73    28    29    2
    74    28    27    1
    75     1     2    1
    76    27    30    1
    77    27    26    1
    78    30    31    1
    79    31    32    1
    80    33    32   ar
    81    32    34   ar
    82    25    24    1
    83    24    23    1
    84    23    22    1
    85    22    21    1
    86    19    20    2
    87    19    18    1
    88    21    18    1
    89    18    17    1
