@<TRIPOS>MOLECULE
tmp/2oz5A00.pdb
 236 225 0 0 0
SMALL
GASTEIGER

@<TRIPOS>ATOM
      1  N         -0.7390   64.4600    6.2700 N.3    54  SER54      -0.1217
      2  CA        -1.4840   64.4300    4.9970 C.3    54  SER54       0.1889
      3  C         -2.9040   63.9290    5.2820 C.2    54  SER54       0.2288
      4  O         -3.1610   63.3080    6.3270 O.2    54  SER54      -0.2866
      5  CB        -0.7900   63.5190    3.9740 C.3    54  SER54       0.2089
      6  OG        -0.7190   62.1770    4.4480 O.3    54  SER54      -0.2183
      7  N         -4.4550   61.6510    3.8220 N.3    56  ARG56      -0.1231
      8  CA        -4.3740   60.2040    3.7580 C.3    56  ARG56       0.1694
      9  C         -4.0460   59.6320    5.1370 C.2    56  ARG56       0.2591
     10  O         -4.6930   58.6980    5.5910 O.2    56  ARG56      -0.2718
     11  CB        -3.3180   59.7470    2.7370 C.3    56  ARG56       0.0321
     12  CG        -3.3880   58.2380    2.4330 C.3    56  ARG56       0.0489
     13  CD        -2.3000   57.8270    1.4490 C.3    56  ARG56       0.2205
     14  NE        -2.5790   58.3210    0.1040 N.pl3  56  ARG56      -0.0865
     15  CZ        -1.9880   57.8860   -1.0030 C.cat  56  ARG56       0.5346
     16  NH1       -1.0900   56.9130   -0.9580 N.pl3  56  ARG56       0.1354
     17  NH2       -2.3140   58.4190   -2.1670 N.pl3  56  ARG56       0.1354
     18  N         -3.0490   60.2130    5.8000 N.am   57  GLU57      -0.1979
     19  CA        -2.7110   59.8200    7.1640 C.3    57  GLU57       0.1602
     20  C         -3.8680   59.9760    8.1290 C.2    57  GLU57       0.2287
     21  O         -4.1570   59.0580    8.8950 O.2    57  GLU57      -0.2864
     22  CB        -1.5130   60.5940    7.6830 C.3    57  GLU57       0.0415
     23  CG        -0.2180   60.1810    7.0350 C.3    57  GLU57       0.1163
     24  CD         0.8650   61.1430    7.3950 C.2    57  GLU57       0.3649
     25  OE1        1.4860   60.9500    8.4740 O.co2  57  GLU57      -0.2457
     26  OE2        1.0650   62.1020    6.6120 O.co2  57  GLU57      -0.2457
     27  N          0.4470   68.3310    5.0420 N.3    77  PHE77      -0.1228
     28  CA         1.8250   68.5950    4.6080 C.3    77  PHE77       0.1721
     29  C          2.3970   67.1940    4.3340 C.2    77  PHE77       0.2437
     30  O          2.7470   66.4870    5.2710 O.2    77  PHE77      -0.2733
     31  CB         2.5220   69.3280    5.7630 C.3    77  PHE77       0.0547
     32  CG         4.0170   69.6200    5.5850 C.ar   77  PHE77      -0.0202
     33  CD1        4.7350   69.2310    4.4670 C.ar   77  PHE77      -0.0042
     34  CD2        4.6990   70.2600    6.6210 C.ar   77  PHE77      -0.0042
     35  CE1        6.1170   69.5080    4.3730 C.ar   77  PHE77      -0.0003
     36  CE2        6.0690   70.5390    6.5410 C.ar   77  PHE77      -0.0003
     37  CZ         6.7800   70.1530    5.4150 C.ar   77  PHE77      -0.0000
     38  N          2.4550   66.7730    3.0480 N.am   78  PRO78      -0.2729
     39  CA         2.0570   67.4800    1.8180 C.3    78  PRO78       0.1401
     40  C          0.5510   67.5780    1.6970 C.2    78  PRO78       0.2269
     41  O         -0.1790   66.7180    2.2070 O.2    78  PRO78      -0.2865
     42  CB         2.5880   66.5770    0.7050 C.3    78  PRO78       0.0296
     43  CG         2.5740   65.2110    1.2730 C.3    78  PRO78       0.0237
     44  CD         2.9770   65.4310    2.7400 C.3    78  PRO78       0.0939
     45  N         -2.1280   67.1190   -0.6900 N.3    80  LEU80      -0.1245
     46  CA        -2.3000   66.4280   -1.9540 C.3    80  LEU80       0.1561
     47  C         -3.7180   66.6180   -2.4940 C.2    80  LEU80       0.2260
     48  O         -4.7000   66.5310   -1.7470 O.2    80  LEU80      -0.2867
     49  CB        -1.9560   64.9300   -1.8090 C.3    80  LEU80       0.0270
     50  CG        -0.5580   64.5800   -1.2360 C.3    80  LEU80       0.0019
     51  CD1       -0.3900   63.0780   -0.9380 C.3    80  LEU80       0.0001
     52  CD2        0.5650   65.0700   -2.1550 C.3    80  LEU80       0.0001
     53  N          0.2140   62.4590   -5.7560 N.3    87  SER87      -0.1217
     54  CA         0.7400   61.5880   -4.6950 C.3    87  SER87       0.1889
     55  C          1.9140   60.7150   -5.1310 C.2    87  SER87       0.2288
     56  O          2.6860   60.2540   -4.2890 O.2    87  SER87      -0.2866
     57  CB        -0.3570   60.7300   -4.0580 C.3    87  SER87       0.2089
     58  OG        -1.1980   60.1520   -5.0390 O.3    87  SER87      -0.2183
     59  N          5.5680   61.0230   -3.6730 N.3    90  HIS90      -0.1226
     60  CA         5.6390   60.6350   -2.2600 C.3    90  HIS90       0.1752
     61  C          5.6000   59.1230   -2.1200 C.2    90  HIS90       0.2595
     62  O          6.3660   58.5400   -1.3660 O.2    90  HIS90      -0.2718
     63  CB         4.5050   61.2940   -1.4670 C.3    90  HIS90       0.0759
     64  CG         4.4990   62.7890   -1.5880 C.ar   90  HIS90       0.0818
     65  ND1        5.3660   63.5890   -0.8830 N.ar   90  HIS90      -0.2268
     66  CD2        3.7630   63.6220   -2.3660 C.ar   90  HIS90       0.1154
     67  CE1        5.1670   64.8540   -1.2170 C.ar   90  HIS90       0.1986
     68  NE2        4.1920   64.9010   -2.1070 N.ar   90  HIS90      -0.2212
     69  N          4.7210   58.4870   -2.8800 N.am   91  GLU91      -0.1979
     70  CA         4.6420   57.0300   -2.8560 C.3    91  GLU91       0.1602
     71  C          5.9320   56.4130   -3.3870 C.2    91  GLU91       0.2287
     72  O          6.4350   55.4310   -2.8400 O.2    91  GLU91      -0.2864
     73  CB         3.4280   56.5420   -3.6660 C.3    91  GLU91       0.0415
     74  CG         2.0620   56.9920   -3.0790 C.3    91  GLU91       0.1163
     75  CD         0.8950   56.8260   -4.0630 C.2    91  GLU91       0.3649
     76  OE1        1.1370   56.8020   -5.2840 O.co2  91  GLU91      -0.2457
     77  OE2       -0.2660   56.7370   -3.6130 O.co2  91  GLU91      -0.2457
     78  N          8.8370   56.7210   -0.8180 N.3    94  PHE94      -0.1241
     79  CA         8.6510   55.7410    0.2710 C.3    94  PHE94       0.1605
     80  C          8.9930   54.3130   -0.1690 C.2    94  PHE94       0.2264
     81  O          9.7150   53.6070    0.5230 O.2    94  PHE94      -0.2867
     82  CB         7.2190   55.8410    0.8300 C.3    94  PHE94       0.0534
     83  CG         7.0020   55.0760    2.1110 C.ar   94  PHE94      -0.0203
     84  CD1        7.4360   55.5930    3.3390 C.ar   94  PHE94      -0.0042
     85  CD2        6.3410   53.8470    2.0960 C.ar   94  PHE94      -0.0042
     86  CE1        7.2110   54.9050    4.5260 C.ar   94  PHE94      -0.0003
     87  CE2        6.1150   53.1540    3.2840 C.ar   94  PHE94      -0.0003
     88  CZ         6.5810   53.6650    4.4990 C.ar   94  PHE94      -0.0000
     89  N         12.7600   53.8550   -0.4120 N.3    97  LEU97      -0.1245
     90  CA        13.2640   53.6860    0.9430 C.3    97  LEU97       0.1561
     91  C         13.1070   52.2260    1.3750 C.2    97  LEU97       0.2260
     92  O         14.0370   51.6310    1.9200 O.2    97  LEU97      -0.2867
     93  CB        12.5110   54.5970    1.9240 C.3    97  LEU97       0.0270
     94  CG        12.6710   54.2950    3.4230 C.3    97  LEU97       0.0019
     95  CD1       14.0910   54.6560    3.9370 C.3    97  LEU97       0.0001
     96  CD2       11.5440   54.9220    4.2950 C.3    97  LEU97       0.0001
     97  N         16.6830   59.3400    1.6390 N.3   114  TYR114     -0.1227
     98  CA        15.2500   59.6410    1.6070 C.3   114  TYR114      0.1736
     99  C         14.9520   60.9120    2.3820 C.2   114  TYR114      0.2595
    100  O         14.3360   61.8360    1.8660 O.2   114  TYR114     -0.2718
    101  CB        14.4610   58.4420    2.1500 C.3   114  TYR114      0.0548
    102  CG        12.9770   58.6670    2.4220 C.ar  114  TYR114     -0.0200
    103  CD1       12.0630   58.8240    1.3870 C.ar  114  TYR114     -0.0009
    104  CD2       12.4960   58.6880    3.7270 C.ar  114  TYR114     -0.0009
    105  CE1       10.6730   59.0140    1.6480 C.ar  114  TYR114      0.0417
    106  CE2       11.1070   58.8490    3.9980 C.ar  114  TYR114      0.0417
    107  CZ        10.2200   59.0100    2.9430 C.ar  114  TYR114      0.1957
    108  OH         8.8830   59.1960    3.2100 O.3   114  TYR114     -0.2866
    109  N         15.4520   60.9650    3.6130 N.am  115  MET115     -0.1979
    110  CA        15.1510   62.0360    4.5320 C.3   115  MET115      0.1605
    111  C         15.7330   63.3520    4.0500 C.2   115  MET115      0.2287
    112  O         15.0380   64.3610    4.0440 O.2   115  MET115     -0.2864
    113  CB        15.6430   61.6870    5.9280 C.3   115  MET115      0.0413
    114  CG        14.8430   60.5080    6.5330 C.3   115  MET115      0.0598
    115  SD        13.0740   60.8760    6.6370 S.3   115  MET115     -0.1393
    116  CE        13.2080   61.5780    8.2680 C.3   115  MET115      0.0692
    117  N         13.8770   64.5760    0.8960 N.3   118  GLU118     -0.1245
    118  CA        12.5310   65.0980    1.2610 C.3   118  GLU118      0.1567
    119  C         12.6280   66.4680    1.9440 C.2   118  GLU118      0.2260
    120  O         11.8790   67.3840    1.6160 O.2   118  GLU118     -0.2867
    121  CB        11.7190   64.1200    2.1390 C.3   118  GLU118      0.0388
    122  CG        11.2640   62.8210    1.4570 C.3   118  GLU118      0.1160
    123  CD        10.5260   63.0290    0.1280 C.2   118  GLU118      0.3649
    124  OE1        9.4920   63.7210    0.0890 O.co2 118  GLU118     -0.2457
    125  OE2       10.9760   62.4770   -0.8970 O.co2 118  GLU118     -0.2457
    126  N         10.8970   70.3400    1.3590 N.3   122  PHE122     -0.1241
    127  CA         9.9380   70.8730    2.3500 C.3   122  PHE122      0.1605
    128  C          9.4410   72.2970    2.0630 C.2   122  PHE122      0.2264
    129  O          8.2170   72.5370    2.0910 O.2   122  PHE122     -0.2867
    130  CB        10.5290   70.8440    3.7760 C.3   122  PHE122      0.0534
    131  CG        10.3810   69.5190    4.5060 C.ar  122  PHE122     -0.0203
    132  CD1        9.8790   68.3740    3.8750 C.ar  122  PHE122     -0.0042
    133  CD2       10.8000   69.4150    5.8330 C.ar  122  PHE122     -0.0042
    134  CE1        9.7700   67.1720    4.5750 C.ar  122  PHE122     -0.0003
    135  CE2       10.6810   68.2080    6.5400 C.ar  122  PHE122     -0.0003
    136  CZ        10.1690   67.1030    5.9190 C.ar  122  PHE122     -0.0000
    137  N          7.0690   72.5400   -1.1000 N.3   125  ARG125     -0.1245
    138  CA         5.9950   71.5530   -1.1830 C.3   125  ARG125      0.1563
    139  C          4.6420   72.1720   -0.8660 C.2   125  ARG125      0.2260
    140  O          4.5270   73.0210    0.0280 O.2   125  ARG125     -0.2867
    141  CB         6.2560   70.3700   -0.2390 C.3   125  ARG125      0.0307
    142  CG         7.0520   69.2550   -0.8620 C.3   125  ARG125      0.0489
    143  CD         6.8610   67.9750   -0.0960 C.3   125  ARG125      0.2205
    144  NE         7.7050   66.8620   -0.5460 N.pl3 125  ARG125     -0.0865
    145  CZ         7.9750   66.5510   -1.8100 C.cat 125  ARG125      0.5346
    146  NH1        7.4690   67.2580   -2.8250 N.pl3 125  ARG125      0.1354
    147  NH2        8.7460   65.5020   -2.0610 N.pl3 125  ARG125      0.1354
    148  N          2.5480   66.3260   13.7110 N.3   149  CYS149     -0.1221
    149  CA         2.3450   65.5510   12.5030 C.3   149  CYS149      0.1808
    150  C          2.0710   64.1140   12.9400 C.2   149  CYS149      0.2601
    151  O          1.1190   63.8840   13.7200 O.2   149  CYS149     -0.2717
    152  CB         3.5250   65.6980   11.5200 C.3   149  CYS149      0.0970
    153  SG         5.1800   65.4320   12.2000 S.3   149  CYS149     -0.0800
    154  N          2.8570   63.1630   12.4350 N.am  150  PHE150     -0.1962
    155  CA         2.8100   61.7920   12.9510 C.3   150  PHE150      0.1771
    156  C          3.8810   61.6020   14.0300 C.2   150  PHE150      0.2619
    157  O          3.5550   61.3560   15.1870 O.2   150  PHE150     -0.2715
    158  CB         2.9730   60.7250   11.8420 C.3   150  PHE150      0.0574
    159  CG         3.2090   59.3300   12.3980 C.ar  150  PHE150     -0.0200
    160  CD1        2.1930   58.6690   13.0930 C.ar  150  PHE150     -0.0042
    161  CD2        4.4490   58.7170   12.2850 C.ar  150  PHE150     -0.0042
    162  CE1        2.4220   57.3940   13.6500 C.ar  150  PHE150     -0.0003
    163  CE2        4.6720   57.4300   12.8220 C.ar  150  PHE150     -0.0003
    164  CZ         3.6620   56.7830   13.5100 C.ar  150  PHE150     -0.0000
    165  N          5.1520   61.7130   13.6470 N.am  151  ALA151     -0.1977
    166  CA         6.2740   61.5280   14.5810 C.3   151  ALA151      0.1597
    167  C          6.6090   62.8190   15.3360 C.2   151  ALA151      0.2287
    168  O          7.2710   62.7780   16.3720 O.2   151  ALA151     -0.2864
    169  CB         7.5220   61.0090   13.8520 C.3   151  ALA151      0.0319
    170  N          8.5730   65.1660   14.4290 N.3   153  LYS153     -0.1231
    171  CA        10.0350   65.3090   14.3840 C.3   153  LYS153      0.1693
    172  C         10.5880   66.0430   13.1530 C.2   153  LYS153      0.2592
    173  O         11.5450   66.8140   13.2940 O.2   153  LYS153     -0.2718
    174  CB        10.7270   63.9270   14.5980 C.3   153  LYS153      0.0285
    175  CG        10.9160   63.0780   13.3330 C.3   153  LYS153      0.0035
    176  CD        11.3800   61.6560   13.6200 C.3   153  LYS153      0.0206
    177  CE        11.8160   60.9830   12.3070 C.3   153  LYS153      0.1093
    178  NZ        10.9570   59.8000   12.2250 N.3   153  LYS153     -0.1314
    179  N          9.9610   65.8490   11.9750 N.am  154  ASP154     -0.1960
    180  CA        10.4700   66.3690   10.7030 C.3   154  ASP154      0.1840
    181  C          9.5910   67.4870   10.1500 C.2   154  ASP154      0.2621
    182  O         10.0160   68.6430   10.0820 O.2   154  ASP154     -0.2715
    183  CB        10.6250   65.2550    9.6480 C.3   154  ASP154      0.1450
    184  CG        11.5310   64.1230   10.1110 C.2   154  ASP154      0.3671
    185  OD1       12.7250   64.3620   10.3890 O.co2 154  ASP154     -0.2456
    186  OD2       11.0480   62.9790   10.1550 O.co2 154  ASP154     -0.2456
    187  N          8.3730   67.1360    9.7430 N.am  155  ARG155     -0.1977
    188  CA         7.3820   68.1450    9.3790 C.3   155  ARG155      0.1597
    189  C          7.1610   69.1270   10.5340 C.2   155  ARG155      0.2287
    190  O          7.2320   70.3330   10.3320 O.2   155  ARG155     -0.2864
    191  CB         6.0670   67.4640    8.9560 C.3   155  ARG155      0.0334
    192  CG         6.1740   66.8120    7.5800 C.3   155  ARG155      0.0492
    193  CD         4.9380   65.9980    7.2870 C.3   155  ARG155      0.2205
    194  NE         4.7610   64.8600    8.2150 N.pl3 155  ARG155     -0.0865
    195  CZ         3.7950   63.9460    8.0840 C.cat 155  ARG155      0.5346
    196  NH1        2.9290   64.0330    7.0750 N.pl3 155  ARG155      0.1354
    197  NH2        3.6980   62.9310    8.9410 N.pl3 155  ARG155      0.1354
    198  N          8.8120   55.8390   19.1250 N.3   188  LEU188     -0.1245
    199  CA         8.3730   55.9180   17.7370 C.3   188  LEU188      0.1561
    200  C          8.4440   54.5330   17.1180 C.2   188  LEU188      0.2260
    201  O          7.5050   54.1140   16.4320 O.2   188  LEU188     -0.2867
    202  CB         9.2400   56.8850   16.9410 C.3   188  LEU188      0.0270
    203  CG         9.0460   56.9860   15.4310 C.3   188  LEU188      0.0019
    204  CD1        7.5940   57.3320   15.0860 C.3   188  LEU188      0.0001
    205  CD2       10.0220   58.0330   14.8810 C.3   188  LEU188      0.0001
    206  N          5.3020   52.4330   15.3310 N.3   192  ILE192     -0.1245
    207  CA         5.3840   51.9360   13.9670 C.3   192  ILE192      0.1561
    208  C          5.3030   50.3930   13.9120 C.2   192  ILE192      0.2260
    209  O          4.5850   49.8570   13.0950 O.2   192  ILE192     -0.2867
    210  CB         6.6450   52.4680   13.2470 C.3   192  ILE192      0.0252
    211  CG1        6.5120   53.9990   13.0400 C.3   192  ILE192      0.0019
    212  CG2        6.8180   51.7490   11.9180 C.3   192  ILE192      0.0019
    213  CD1        7.8050   54.6610   12.6680 C.3   192  ILE192      0.0001
    214  N         12.1220   50.2500    9.0720 N.3   216  LEU216     -0.1245
    215  CA        11.3630   51.2430    9.8510 C.3   216  LEU216      0.1561
    216  C         11.6410   51.1890   11.3570 C.2   216  LEU216      0.2260
    217  O         10.7250   51.3630   12.1770 O.2   216  LEU216     -0.2867
    218  CB         9.8600   51.0980    9.5700 C.3   216  LEU216      0.0270
    219  CG         9.4000   51.4790    8.1490 C.3   216  LEU216      0.0019
    220  CD1        7.9910   51.0530    7.9320 C.3   216  LEU216      0.0001
    221  CD2        9.5680   52.9650    7.8410 C.3   216  LEU216      0.0001
    222  N         16.3000   55.6910   10.1540 N.3   220  VAL220     -0.1231
    223  CA        15.1450   56.4690    9.6540 C.3   220  VAL220      0.1692
    224  C         14.2600   57.1030   10.7500 C.2   220  VAL220      0.2591
    225  O         13.4760   58.0050   10.4840 O.2   220  VAL220     -0.2718
    226  CB        14.2450   55.5690    8.6800 C.3   220  VAL220      0.0266
    227  CG1       13.3470   54.6220    9.4580 C.3   220  VAL220      0.0020
    228  CG2       13.4390   56.4190    7.7410 C.3   220  VAL220      0.0020
    229  N         14.3840   56.6310   11.9880 N.am  221  LEU221     -0.1980
    230  CA        13.5520   57.1610   13.0650 C.3   221  LEU221      0.1596
    231  C         14.1270   58.4060   13.7610 C.2   221  LEU221      0.2287
    232  O         13.4290   59.0810   14.4940 O.2   221  LEU221     -0.2864
    233  CB        13.2610   56.0560   14.0810 C.3   221  LEU221      0.0297
    234  CG        12.6520   54.7460   13.5410 C.3   221  LEU221      0.0022
    235  CD1       12.4950   53.7820   14.7020 C.3   221  LEU221      0.0001
    236  CD2       11.2940   54.9840   12.8610 C.3   221  LEU221      0.0001
@<TRIPOS>BOND
     1    53    54    1
     2    76    75   ar
     3    55    54    1
     4    55    56    2
     5    58    57    1
     6    54    57    1
     7    75    77   ar
     8    75    74    1
     9    59    60    1
    10    73    74    1
    11    73    70    1
    12    71    70    1
    13    71    72    2
    14    69    70    1
    15    69    61   am
    16   146   145    1
    17    47    46    1
    18    47    48    2
    19    66    68   ar
    20    66    64   ar
    21    60    61    1
    22    60    63    1
    23    17    15    1
    24    52    50    1
    25    61    62    2
    26    68    67   ar
    27   147   145    1
    28    46    49    1
    29    46    45    1
    30   145   144    2
    31    49    50    1
    32    64    63    1
    33    64    65   ar
    34    50    51    1
    35    67    65   ar
    36   138   137    1
    37   138   139    1
    38   138   141    1
    39    15    16    1
    40    15    14    2
    41   125   123   ar
    42   139   140    2
    43   142   141    1
    44   142   143    1
    45    78    79    1
    46   144   143    1
    47    89    90    1
    48    80    79    1
    49    80    81    2
    50   124   123   ar
    51    14    13    1
    52   123   122    1
    53    79    82    1
    54    42    43    1
    55    42    39    1
    56    82    83    1
    57   117   118    1
    58    90    91    1
    59    90    93    1
    60   118   119    1
    61   118   121    1
    62    43    44    1
    63   126   127    1
    64    91    92    2
    65   103   105   ar
    66   103   102   ar
    67    13    12    1
    68   122   121    1
    69    98    97    1
    70    98   101    1
    71    98    99    1
    72   120   119    2
    73   105   107   ar
    74    40    39    1
    75    40    41    2
    76    39    38    1
    77   100    99    2
    78    93    94    1
    79   128   129    2
    80   128   127    1
    81    85    83   ar
    82    85    87   ar
    83    83    84   ar
    84   101   102    1
    85   127   130    1
    86    99   109   am
    87   102   104   ar
    88    12    11    1
    89    11     8    1
    90    44    38    1
    91   107   108    1
    92   107   106   ar
    93    38    29   am
    94    87    88   ar
    95    84    86   ar
    96    94    95    1
    97    94    96    1
    98   109   110    1
    99   104   106   ar
   100     8     7    1
   101     8     9    1
   102   130   131    1
   103   132   131   ar
   104   132   134   ar
   105     5     6    1
   106     5     2    1
   107   112   111    2
   108   111   110    1
   109    29    28    1
   110    29    30    2
   111    35    33   ar
   112    35    37   ar
   113    33    32   ar
   114    88    86   ar
   115   131   133   ar
   116   110   113    1
   117   134   136   ar
   118    28    27    1
   119    28    31    1
   120     2     3    1
   121     2     1    1
   122     9    10    2
   123     9    18   am
   124     3     4    2
   125    37    36   ar
   126    32    31    1
   127    32    34   ar
   128    18    19    1
   129   133   135   ar
   130   136   135   ar
   131   113   114    1
   132   114   115    1
   133    36    34   ar
   134    26    24   ar
   135   115   116    1
   136    23    24    1
   137    23    22    1
   138   196   195    1
   139    19    22    1
   140    19    20    1
   141   193   192    1
   142   193   194    1
   143    24    25   ar
   144   192   191    1
   145   228   226    1
   146   221   219    1
   147   220   219    1
   148   195   194    2
   149   195   197    1
   150    20    21    2
   151   219   218    1
   152   226   227    1
   153   226   223    1
   154   191   188    1
   155   214   215    1
   156   188   187    1
   157   188   189    1
   158   218   215    1
   159   183   184    1
   160   183   180    1
   161   223   222    1
   162   223   224    1
   163   187   181   am
   164   215   216    1
   165   182   181    2
   166   184   186   ar
   167   184   185   ar
   168   181   180    1
   169   190   189    2
   170   225   224    2
   171   180   179    1
   172   224   229   am
   173   216   217    2
   174   152   153    1
   175   152   149    1
   176   158   159    1
   177   158   155    1
   178   212   210    1
   179   179   172   am
   180   229   230    1
   181   178   177    1
   182   161   159   ar
   183   161   163   ar
   184   177   176    1
   185   159   160   ar
   186   154   150   am
   187   154   155    1
   188   149   150    1
   189   149   148    1
   190   213   211    1
   191   163   164   ar
   192   236   234    1
   193   150   151    2
   194   155   156    1
   195   211   210    1
   196   230   231    1
   197   230   233    1
   198   160   162   ar
   199   209   208    2
   200   172   173    2
   201   172   171    1
   202   210   207    1
   203   175   176    1
   204   175   174    1
   205   164   162   ar
   206   234   233    1
   207   234   235    1
   208   165   156   am
   209   165   166    1
   210   231   232    2
   211   169   166    1
   212   208   207    1
   213   207   206    1
   214   156   157    2
   215   171   170    1
   216   171   174    1
   217   166   167    1
   218   205   203    1
   219   204   203    1
   220   167   168    2
   221   203   202    1
   222   201   200    2
   223   202   199    1
   224   200   199    1
   225   199   198    1
