@<TRIPOS>MOLECULE
tmp/2oz5A01.pdb
 174 165 0 0 0
SMALL
GASTEIGER

@<TRIPOS>ATOM
      1  N         -0.7390   64.4600    6.2700 N.3    54  SER54      -0.1217
      2  CA        -1.4840   64.4300    4.9970 C.3    54  SER54       0.1889
      3  C         -2.9040   63.9290    5.2820 C.2    54  SER54       0.2288
      4  O         -3.1610   63.3080    6.3270 O.2    54  SER54      -0.2866
      5  CB        -0.7900   63.5190    3.9740 C.3    54  SER54       0.2089
      6  OG        -0.7190   62.1770    4.4480 O.3    54  SER54      -0.2183
      7  N         -4.4550   61.6510    3.8220 N.3    56  ARG56      -0.1231
      8  CA        -4.3740   60.2040    3.7580 C.3    56  ARG56       0.1694
      9  C         -4.0460   59.6320    5.1370 C.2    56  ARG56       0.2591
     10  O         -4.6930   58.6980    5.5910 O.2    56  ARG56      -0.2718
     11  CB        -3.3180   59.7470    2.7370 C.3    56  ARG56       0.0321
     12  CG        -3.3880   58.2380    2.4330 C.3    56  ARG56       0.0489
     13  CD        -2.3000   57.8270    1.4490 C.3    56  ARG56       0.2205
     14  NE        -2.5790   58.3210    0.1040 N.pl3  56  ARG56      -0.0865
     15  CZ        -1.9880   57.8860   -1.0030 C.cat  56  ARG56       0.5346
     16  NH1       -1.0900   56.9130   -0.9580 N.pl3  56  ARG56       0.1354
     17  NH2       -2.3140   58.4190   -2.1670 N.pl3  56  ARG56       0.1354
     18  N         -3.0490   60.2130    5.8000 N.am   57  GLU57      -0.1979
     19  CA        -2.7110   59.8200    7.1640 C.3    57  GLU57       0.1602
     20  C         -3.8680   59.9760    8.1290 C.2    57  GLU57       0.2287
     21  O         -4.1570   59.0580    8.8950 O.2    57  GLU57      -0.2864
     22  CB        -1.5130   60.5940    7.6830 C.3    57  GLU57       0.0415
     23  CG        -0.2180   60.1810    7.0350 C.3    57  GLU57       0.1163
     24  CD         0.8650   61.1430    7.3950 C.2    57  GLU57       0.3649
     25  OE1        1.4860   60.9500    8.4740 O.co2  57  GLU57      -0.2457
     26  OE2        1.0650   62.1020    6.6120 O.co2  57  GLU57      -0.2457
     27  N         -6.5580   57.3190    7.6390 N.3    60  ARG60      -0.1231
     28  CA        -6.1720   55.9490    8.0200 C.3    60  ARG60       0.1694
     29  C         -5.8920   55.7780    9.5060 C.2    60  ARG60       0.2591
     30  O         -6.0950   54.6950   10.0480 O.2    60  ARG60      -0.2718
     31  CB        -4.9770   55.4470    7.1930 C.3    60  ARG60       0.0321
     32  CG        -5.3010   55.3250    5.7090 C.3    60  ARG60       0.0489
     33  CD        -4.1260   54.8210    4.8660 C.3    60  ARG60       0.2205
     34  NE        -4.4670   54.9140    3.4510 N.pl3  60  ARG60      -0.0865
     35  CZ        -3.6340   54.7390    2.4360 C.cat  60  ARG60       0.5346
     36  NH1       -2.3580   54.4480    2.6480 N.pl3  60  ARG60       0.1354
     37  NH2       -4.0910   54.8680    1.1970 N.pl3  60  ARG60       0.1354
     38  N         -5.4300   56.8380   10.1610 N.am   61  ARG61      -0.1980
     39  CA        -5.1580   56.7750   11.6050 C.3    61  ARG61       0.1597
     40  C         -6.1350   57.5740   12.4970 C.2    61  ARG61       0.2287
     41  O         -6.1570   57.4060   13.7230 O.2    61  ARG61      -0.2864
     42  CB        -3.7040   57.1280   11.8830 C.3    61  ARG61       0.0334
     43  CG        -2.7530   55.9530   11.6340 C.3    61  ARG61       0.0492
     44  CD        -1.3170   56.2630   12.0350 C.3    61  ARG61       0.2205
     45  NE        -1.1100   56.1850   13.4730 N.pl3  61  ARG61      -0.0865
     46  CZ        -0.9560   55.0600   14.1620 C.cat  61  ARG61       0.5346
     47  NH1       -0.9940   53.8830   13.5520 N.pl3  61  ARG61       0.1354
     48  NH2       -0.7720   55.1110   15.4740 N.pl3  61  ARG61       0.1354
     49  N          5.5680   61.0230   -3.6730 N.3    90  HIS90      -0.1226
     50  CA         5.6390   60.6350   -2.2600 C.3    90  HIS90       0.1752
     51  C          5.6000   59.1230   -2.1200 C.2    90  HIS90       0.2595
     52  O          6.3660   58.5400   -1.3660 O.2    90  HIS90      -0.2718
     53  CB         4.5050   61.2940   -1.4670 C.3    90  HIS90       0.0759
     54  CG         4.4990   62.7890   -1.5880 C.ar   90  HIS90       0.0818
     55  ND1        5.3660   63.5890   -0.8830 N.ar   90  HIS90      -0.2268
     56  CD2        3.7630   63.6220   -2.3660 C.ar   90  HIS90       0.1154
     57  CE1        5.1670   64.8540   -1.2170 C.ar   90  HIS90       0.1986
     58  NE2        4.1920   64.9010   -2.1070 N.ar   90  HIS90      -0.2212
     59  N          4.7210   58.4870   -2.8800 N.am   91  GLU91      -0.1979
     60  CA         4.6420   57.0300   -2.8560 C.3    91  GLU91       0.1602
     61  C          5.9320   56.4130   -3.3870 C.2    91  GLU91       0.2287
     62  O          6.4350   55.4310   -2.8400 O.2    91  GLU91      -0.2864
     63  CB         3.4280   56.5420   -3.6660 C.3    91  GLU91       0.0415
     64  CG         2.0620   56.9920   -3.0790 C.3    91  GLU91       0.1163
     65  CD         0.8950   56.8260   -4.0630 C.2    91  GLU91       0.3649
     66  OE1        1.1370   56.8020   -5.2840 O.co2  91  GLU91      -0.2457
     67  OE2       -0.2660   56.7370   -3.6130 O.co2  91  GLU91      -0.2457
     68  N          8.8370   56.7210   -0.8180 N.3    94  PHE94      -0.1227
     69  CA         8.6510   55.7410    0.2710 C.3    94  PHE94       0.1736
     70  C          8.9930   54.3130   -0.1690 C.2    94  PHE94       0.2595
     71  O          9.7150   53.6070    0.5230 O.2    94  PHE94      -0.2718
     72  CB         7.2190   55.8410    0.8300 C.3    94  PHE94       0.0547
     73  CG         7.0020   55.0760    2.1110 C.ar   94  PHE94      -0.0202
     74  CD1        7.4360   55.5930    3.3390 C.ar   94  PHE94      -0.0042
     75  CD2        6.3410   53.8470    2.0960 C.ar   94  PHE94      -0.0042
     76  CE1        7.2110   54.9050    4.5260 C.ar   94  PHE94      -0.0003
     77  CE2        6.1150   53.1540    3.2840 C.ar   94  PHE94      -0.0003
     78  CZ         6.5810   53.6650    4.4990 C.ar   94  PHE94      -0.0000
     79  N          8.4740   53.9050   -1.3310 N.am   95  LYS95      -0.1980
     80  CA         8.7720   52.6010   -1.9310 C.3    95  LYS95       0.1596
     81  C         10.2760   52.3750   -2.1360 C.2    95  LYS95       0.2287
     82  O         10.7810   51.2800   -1.8930 O.2    95  LYS95      -0.2864
     83  CB         8.0420   52.4600   -3.2740 C.3    95  LYS95       0.0298
     84  CG         8.3090   51.1160   -3.9760 C.3    95  LYS95       0.0038
     85  CD         7.4580   50.9430   -5.2160 C.3    95  LYS95       0.0206
     86  CE         8.3570   50.0900   -6.1810 C.3    95  LYS95       0.1093
     87  NZ         9.7260   50.4960   -6.6700 N.3    95  LYS95      -0.1314
     88  N         11.9310   51.6680    1.1210 N.3    98  LEU98      -0.1245
     89  CA        11.6000   50.3320    1.6000 C.3    98  LEU98       0.1561
     90  C         12.3050   49.2350    0.7930 C.2    98  LEU98       0.2260
     91  O         12.7120   48.2150    1.3420 O.2    98  LEU98      -0.2867
     92  CB        10.0820   50.1220    1.5520 C.3    98  LEU98       0.0270
     93  CG         9.2430   50.6090    2.7340 C.3    98  LEU98       0.0019
     94  CD1        7.8650   49.9710    2.6370 C.3    98  LEU98       0.0001
     95  CD2        9.9020   50.2820    4.0970 C.3    98  LEU98       0.0001
     96  N          2.8570   63.1630   12.4350 N.3   150  PHE150     -0.1241
     97  CA         2.8100   61.7920   12.9510 C.3   150  PHE150      0.1605
     98  C          3.8810   61.6020   14.0300 C.2   150  PHE150      0.2264
     99  O          3.5550   61.3560   15.1870 O.2   150  PHE150     -0.2867
    100  CB         2.9730   60.7250   11.8420 C.3   150  PHE150      0.0534
    101  CG         3.2090   59.3300   12.3980 C.ar  150  PHE150     -0.0203
    102  CD1        2.1930   58.6690   13.0930 C.ar  150  PHE150     -0.0042
    103  CD2        4.4490   58.7170   12.2850 C.ar  150  PHE150     -0.0042
    104  CE1        2.4220   57.3940   13.6500 C.ar  150  PHE150     -0.0003
    105  CE2        4.6720   57.4300   12.8220 C.ar  150  PHE150     -0.0003
    106  CZ         3.6620   56.7830   13.5100 C.ar  150  PHE150     -0.0000
    107  N          5.3020   52.4330   15.3310 N.3   192  ILE192     -0.1245
    108  CA         5.3840   51.9360   13.9670 C.3   192  ILE192      0.1561
    109  C          5.3030   50.3930   13.9120 C.2   192  ILE192      0.2260
    110  O          4.5850   49.8570   13.0950 O.2   192  ILE192     -0.2867
    111  CB         6.6450   52.4680   13.2470 C.3   192  ILE192      0.0252
    112  CG1        6.5120   53.9990   13.0400 C.3   192  ILE192      0.0019
    113  CG2        6.8180   51.7490   11.9180 C.3   192  ILE192      0.0019
    114  CD1        7.8050   54.6610   12.6680 C.3   192  ILE192      0.0001
    115  N          1.8190   49.3660   14.2840 N.3   195  MET195     -0.1230
    116  CA         1.1530   49.6510   13.0270 C.3   195  MET195      0.1702
    117  C          1.4100   48.5590   11.9870 C.2   195  MET195      0.2592
    118  O          0.5000   48.1530   11.2890 O.2   195  MET195     -0.2718
    119  CB         1.5850   51.0020   12.4680 C.3   195  MET195      0.0401
    120  CG         0.9800   51.2930   11.1210 C.3   195  MET195      0.0596
    121  SD         1.1830   52.9720   10.5220 S.3   195  MET195     -0.1393
    122  CE         2.9660   53.1380   10.5500 C.3   195  MET195      0.0692
    123  N          2.6490   48.0890   11.9030 N.am  196  ILE196     -0.1980
    124  CA         3.0270   47.0220   10.9480 C.3   196  ILE196      0.1595
    125  C          2.2580   45.7420   11.2770 C.2   196  ILE196      0.2287
    126  O          1.6360   45.1470   10.3900 O.2   196  ILE196     -0.2864
    127  CB         4.5780   46.8340   10.8800 C.3   196  ILE196      0.0276
    128  CG1        5.2080   48.0930   10.2770 C.3   196  ILE196      0.0022
    129  CG2        4.9870   45.5930   10.0060 C.3   196  ILE196      0.0022
    130  CD1        6.7010   48.1310   10.4360 C.3   196  ILE196      0.0001
    131  N         -1.3810   46.3340    9.9500 N.3   199  ARG199     -0.1231
    132  CA        -1.5950   46.4730    8.4990 C.3   199  ARG199      0.1694
    133  C         -1.2520   45.2100    7.7070 C.2   199  ARG199      0.2592
    134  O         -1.6740   45.0830    6.5550 O.2   199  ARG199     -0.2718
    135  CB        -0.8160   47.6480    7.8920 C.3   199  ARG199      0.0321
    136  CG        -1.0840   49.0080    8.4930 C.3   199  ARG199      0.0489
    137  CD        -2.5780   49.2320    8.8190 C.3   199  ARG199      0.2205
    138  NE        -2.7630   50.4060    9.6870 N.pl3 199  ARG199     -0.0865
    139  CZ        -2.5150   51.6450    9.2780 C.cat 199  ARG199      0.5346
    140  NH1       -2.0760   51.8330    8.0390 N.pl3 199  ARG199      0.1354
    141  NH2       -2.6930   52.6820   10.0900 N.pl3 199  ARG199      0.1354
    142  N         -0.4650   44.3170    8.3080 N.am  200  PHE200     -0.1976
    143  CA         0.0050   43.0860    7.6520 C.3   200  PHE200      0.1639
    144  C         -0.4690   41.8760    8.4260 C.2   200  PHE200      0.2290
    145  O         -0.6140   41.9500    9.6390 O.2   200  PHE200     -0.2864
    146  CB         1.5370   43.0670    7.5800 C.3   200  PHE200      0.0560
    147  CG         2.1130   44.1260    6.6960 C.ar  200  PHE200     -0.0200
    148  CD1        2.2570   43.9050    5.3260 C.ar  200  PHE200     -0.0042
    149  CD2        2.5010   45.3570    7.2270 C.ar  200  PHE200     -0.0042
    150  CE1        2.7670   44.8800    4.5180 C.ar  200  PHE200     -0.0003
    151  CE2        3.0290   46.3630    6.4040 C.ar  200  PHE200     -0.0003
    152  CZ         3.1650   46.1240    5.0570 C.ar  200  PHE200     -0.0000
    153  N          7.3410   39.6770    5.1320 N.3   208  VAL208     -0.1245
    154  CA         7.0800   41.0770    4.7990 C.3   208  VAL208      0.1561
    155  C          7.0830   41.9190    6.0720 C.2   208  VAL208      0.2260
    156  O          7.6140   43.0350    6.0920 O.2   208  VAL208     -0.2867
    157  CB         5.7690   41.2260    3.9790 C.3   208  VAL208      0.0252
    158  CG1        5.4650   42.7050    3.6990 C.3   208  VAL208      0.0019
    159  CG2        5.9020   40.4690    2.6570 C.3   208  VAL208      0.0019
    160  N          9.9290   44.8000    6.5180 N.3   212  THR212     -0.1218
    161  CA         9.4090   46.1600    6.7010 C.3   212  THR212      0.1862
    162  C          9.9110   46.7640    8.0140 C.2   212  THR212      0.2287
    163  O         10.4100   47.9040    8.0280 O.2   212  THR212     -0.2866
    164  CB         7.8750   46.2050    6.5590 C.3   212  THR212      0.1770
    165  OG1        7.5090   45.7380    5.2500 O.3   212  THR212     -0.2211
    166  CG2        7.3460   47.6200    6.7370 C.3   212  THR212      0.0375
    167  N         12.1220   50.2500    9.0720 N.3   216  LEU216     -0.1245
    168  CA        11.3630   51.2430    9.8510 C.3   216  LEU216      0.1561
    169  C         11.6410   51.1890   11.3570 C.2   216  LEU216      0.2260
    170  O         10.7250   51.3630   12.1770 O.2   216  LEU216     -0.2867
    171  CB         9.8600   51.0980    9.5700 C.3   216  LEU216      0.0270
    172  CG         9.4000   51.4790    8.1490 C.3   216  LEU216      0.0019
    173  CD1        7.9910   51.0530    7.9320 C.3   216  LEU216      0.0001
    174  CD2        9.5680   52.9650    7.8410 C.3   216  LEU216      0.0001
@<TRIPOS>BOND
     1    87    86    1
     2    86    85    1
     3    66    65   ar
     4    85    84    1
     5    65    67   ar
     6    65    64    1
     7    84    83    1
     8    49    50    1
     9    63    64    1
    10    63    60    1
    11    61    60    1
    12    61    62    2
    13    83    80    1
    14    59    60    1
    15    59    51   am
    16    56    58   ar
    17    56    54   ar
    18    50    51    1
    19    50    53    1
    20    17    15    1
    21    81    80    1
    22    81    82    2
    23    51    52    2
    24    58    57   ar
    25    80    79    1
    26    54    53    1
    27    54    55   ar
    28    79    70   am
    29    57    55   ar
    30    15    16    1
    31    15    14    2
    32    68    69    1
    33    70    69    1
    34    70    71    2
    35    14    13    1
    36    69    72    1
    37    90    91    2
    38    90    89    1
    39    72    73    1
    40    88    89    1
    41    37    35    1
    42    13    12    1
    43    92    89    1
    44    92    93    1
    45    75    73   ar
    46    75    77   ar
    47    73    74   ar
    48    12    11    1
    49    35    36    1
    50    35    34    2
    51    94    93    1
    52   159   157    1
    53    93    95    1
    54    11     8    1
    55    77    78   ar
    56    74    76   ar
    57    34    33    1
    58   158   157    1
    59     8     7    1
    60     8     9    1
    61     5     6    1
    62     5     2    1
    63   157   154    1
    64    78    76   ar
    65   150   152   ar
    66   150   148   ar
    67   154   153    1
    68   154   155    1
    69    33    32    1
    70     2     3    1
    71     2     1    1
    72   152   151   ar
    73     9    10    2
    74     9    18   am
    75   165   164    1
    76     3     4    2
    77   148   147   ar
    78    32    31    1
    79    18    19    1
    80   155   156    2
    81   151   149   ar
    82   160   161    1
    83   134   133    2
    84   164   161    1
    85   164   166    1
    86    26    24   ar
    87   147   149   ar
    88   147   146    1
    89   161   162    1
    90    23    24    1
    91    23    22    1
    92    19    22    1
    93    19    20    1
    94    31    28    1
    95    24    25   ar
    96   146   143    1
    97    27    28    1
    98   143   142    1
    99   143   144    1
   100   133   142   am
   101   133   132    1
   102   174   172    1
   103   135   136    1
   104   135   132    1
   105   173   172    1
   106   162   163    2
   107    28    29    1
   108   140   139    1
   109    20    21    2
   110   172   171    1
   111   144   145    2
   112   136   137    1
   113   132   131    1
   114   137   138    1
   115   167   168    1
   116   139   138    2
   117   139   141    1
   118    29    30    2
   119    29    38   am
   120   171   168    1
   121   168   169    1
   122   129   127    1
   123    38    39    1
   124   128   130    1
   125   128   127    1
   126   126   125    2
   127   121   122    1
   128   121   120    1
   129   127   124    1
   130   124   125    1
   131   124   123    1
   132   120   119    1
   133   118   117    2
   134   169   170    2
   135    39    42    1
   136    39    40    1
   137    43    42    1
   138    43    44    1
   139   100   101    1
   140   100    97    1
   141   123   117   am
   142   113   111    1
   143   117   116    1
   144    44    45    1
   145   103   101   ar
   146   103   105   ar
   147   101   102   ar
   148    96    97    1
   149   119   116    1
   150    40    41    2
   151   114   112    1
   152   105   106   ar
   153    97    98    1
   154   116   115    1
   155   112   111    1
   156   102   104   ar
   157   110   109    2
   158   111   108    1
   159    45    46    2
   160   106   104   ar
   161    47    46    1
   162   109   108    1
   163   108   107    1
   164    98    99    2
   165    46    48    1
