@<TRIPOS>MOLECULE
tmp/2oz6A01.pdb
 151 141 0 0 0
SMALL
GASTEIGER

@<TRIPOS>ATOM
      1  N        -18.3840   43.4790   -2.0540 N.3    25  ILE25      -0.1245
      2  CA       -19.5200   44.3770   -2.1430 C.3    25  ILE25       0.1561
      3  C        -19.8330   44.9930   -0.7930 C.2    25  ILE25       0.2260
      4  O        -19.8250   44.3100    0.2430 O.2    25  ILE25      -0.2867
      5  CB       -20.7850   43.6560   -2.6590 C.3    25  ILE25       0.0252
      6  CG1      -20.6760   43.4160   -4.1650 C.3    25  ILE25       0.0019
      7  CG2      -22.0230   44.4930   -2.3600 C.3    25  ILE25       0.0019
      8  CD1      -21.8610   42.6920   -4.7610 C.3    25  ILE25       0.0001
      9  N        -25.8470   49.8090   -7.1190 N.3    31  CYS31      -0.1235
     10  CA       -25.6720   48.6270   -7.9590 C.3    31  CYS31       0.1677
     11  C        -25.4380   49.0710   -9.3900 C.2    31  CYS31       0.2270
     12  O        -26.1580   49.9260   -9.8910 O.2    31  CYS31      -0.2867
     13  CB       -26.9270   47.7630   -7.9250 C.3    31  CYS31       0.0956
     14  SG       -27.4910   47.3020   -6.2890 S.3    31  CYS31      -0.0801
     15  N        -22.0110   35.9280    2.3870 N.3    44  ILE44      -0.1245
     16  CA       -23.0080   36.9880    2.3740 C.3    44  ILE44       0.1561
     17  C        -23.2950   37.3580    3.8460 C.2    44  ILE44       0.2260
     18  O        -23.6450   36.5060    4.6670 O.2    44  ILE44      -0.2867
     19  CB       -24.3210   36.5560    1.6270 C.3    44  ILE44       0.0252
     20  CG1      -24.0910   36.5460    0.1110 C.3    44  ILE44       0.0019
     21  CG2      -25.4360   37.5610    1.8930 C.3    44  ILE44       0.0019
     22  CD1      -23.1140   35.5170   -0.3750 C.3    44  ILE44       0.0001
     23  N        -24.9680   40.3710    6.7450 N.3    46  ILE46      -0.1245
     24  CA       -25.8370   41.5080    7.0330 C.3    46  ILE46       0.1561
     25  C        -25.4160   41.8430    8.4490 C.2    46  ILE46       0.2260
     26  O        -24.7630   41.0400    9.1140 O.2    46  ILE46      -0.2867
     27  CB       -27.3490   41.2010    7.0060 C.3    46  ILE46       0.0252
     28  CG1      -27.6960   40.0690    7.9800 C.3    46  ILE46       0.0019
     29  CG2      -27.7800   40.9450    5.5780 C.3    46  ILE46       0.0019
     30  CD1      -29.1790   39.9800    8.3170 C.3    46  ILE46       0.0001
     31  N        -25.5330   35.1780    6.1130 N.3    56  ILE56      -0.1231
     32  CA       -26.7490   34.7690    5.4380 C.3    56  ILE56       0.1692
     33  C        -26.4950   33.5090    4.6130 C.2    56  ILE56       0.2592
     34  O        -27.3840   32.6740    4.4580 O.2    56  ILE56      -0.2718
     35  CB       -27.2230   35.8710    4.4890 C.3    56  ILE56       0.0266
     36  CG1      -27.5840   37.1220    5.2810 C.3    56  ILE56       0.0019
     37  CG2      -28.3950   35.3850    3.6960 C.3    56  ILE56       0.0020
     38  CD1      -28.6460   36.9010    6.3470 C.3    56  ILE56       0.0001
     39  N        -25.2870   33.3930    4.0710 N.am   57  GLY57      -0.1957
     40  CA       -24.9430   32.2310    3.2800 C.3    57  GLY57       0.1869
     41  C        -23.5940   32.3120    2.5890 C.2    57  GLY57       0.2309
     42  O        -22.8730   33.2930    2.7180 O.2    57  GLY57      -0.2863
     43  N        -21.6170   31.3950   -1.2830 N.3    59  LEU59      -0.1245
     44  CA       -21.8120   31.0870   -2.6910 C.3    59  LEU59       0.1561
     45  C        -20.4600   30.5830   -3.1590 C.2    59  LEU59       0.2260
     46  O        -19.4140   30.9910   -2.6430 O.2    59  LEU59      -0.2867
     47  CB       -22.2540   32.3260   -3.4680 C.3    59  LEU59       0.0270
     48  CG       -23.6220   32.8720   -3.0510 C.3    59  LEU59       0.0019
     49  CD1      -23.8890   34.1910   -3.7490 C.3    59  LEU59       0.0001
     50  CD2      -24.6880   31.8750   -3.3670 C.3    59  LEU59       0.0001
     51  N        -23.4890   36.7820   -8.0900 N.3    65  PHE65      -0.1227
     52  CA       -23.8680   37.5420   -6.9100 C.3    65  PHE65       0.1736
     53  C        -23.8540   39.0050   -7.3080 C.2    65  PHE65       0.2596
     54  O        -23.2450   39.3690   -8.3010 O.2    65  PHE65      -0.2718
     55  CB       -22.9610   37.2280   -5.7080 C.3    65  PHE65       0.0547
     56  CG       -21.5450   37.6880   -5.8540 C.ar   65  PHE65      -0.0202
     57  CD1      -21.2020   39.0170   -5.6140 C.ar   65  PHE65      -0.0042
     58  CD2      -20.5390   36.7760   -6.1500 C.ar   65  PHE65      -0.0042
     59  CE1      -19.8840   39.4300   -5.6500 C.ar   65  PHE65      -0.0003
     60  CE2      -19.2190   37.1760   -6.1890 C.ar   65  PHE65      -0.0003
     61  CZ       -18.8880   38.5100   -5.9350 C.ar   65  PHE65      -0.0000
     62  N        -24.5630   39.8360   -6.5540 N.am   66  GLY66      -0.1942
     63  CA       -24.6510   41.2410   -6.8990 C.3    66  GLY66       0.2014
     64  C        -25.6750   41.3450   -8.0230 C.2    66  GLY66       0.2639
     65  O        -25.5900   42.2200   -8.8780 O.2    66  GLY66      -0.2714
     66  N        -26.6580   40.4490   -8.0110 N.am   67  GLU67      -0.1963
     67  CA       -27.6690   40.4300   -9.0550 C.3    67  GLU67       0.1733
     68  C        -29.0200   41.0040   -8.6650 C.2    67  GLU67       0.2616
     69  O        -29.9190   41.1120   -9.4970 O.2    67  GLU67      -0.2715
     70  CB       -27.8810   38.9930   -9.5460 C.3    67  GLU67       0.0429
     71  CG       -28.8140   38.1300   -8.6880 C.3    67  GLU67       0.1163
     72  CD       -28.2200   37.7150   -7.3470 C.2    67  GLU67       0.3649
     73  OE1      -27.0070   37.9020   -7.1210 O.co2  67  GLU67      -0.2457
     74  OE2      -28.9850   37.1820   -6.5180 O.co2  67  GLU67      -0.2457
     75  N        -29.1740   41.3750   -7.4010 N.am   68  LEU68      -0.1963
     76  CA       -30.4570   41.8880   -6.9560 C.3    68  LEU68       0.1728
     77  C        -30.8140   43.2880   -7.4570 C.2    68  LEU68       0.2616
     78  O        -31.9980   43.6630   -7.4910 O.2    68  LEU68      -0.2715
     79  CB       -30.5370   41.8150   -5.4290 C.3    68  LEU68       0.0311
     80  CG       -30.3690   40.3880   -4.9060 C.3    68  LEU68       0.0022
     81  CD1      -30.6020   40.3790   -3.4200 C.3    68  LEU68       0.0001
     82  CD2      -31.3490   39.4440   -5.6030 C.3    68  LEU68       0.0001
     83  N        -29.8040   44.0560   -7.8650 N.am   69  GLY69      -0.1955
     84  CA       -30.0700   45.3960   -8.3640 C.3    69  GLY69       0.1869
     85  C        -30.2340   45.4130   -9.8770 C.2    69  GLY69       0.2309
     86  O        -30.4070   46.4660  -10.4760 O.2    69  GLY69      -0.2863
     87  N        -29.7100   49.6460   -4.3000 N.3    74  GLU74      -0.1231
     88  CA       -28.3930   49.6770   -3.6750 C.3    74  GLU74       0.1699
     89  C        -28.0940   48.3050   -3.0730 C.2    74  GLU74       0.2592
     90  O        -28.9980   47.6210   -2.6070 O.2    74  GLU74      -0.2718
     91  CB       -28.3060   50.7870   -2.6200 C.3    74  GLU74       0.0402
     92  CG       -29.3410   50.7470   -1.5170 C.3    74  GLU74       0.1161
     93  CD       -29.2780   51.9920   -0.6370 C.2    74  GLU74       0.3649
     94  OE1      -28.9530   51.8650    0.5680 O.co2  74  GLU74      -0.2457
     95  OE2      -29.5470   53.1030   -1.1530 O.co2  74  GLU74      -0.2457
     96  N        -26.8300   47.8940   -3.1300 N.am   75  ARG75      -0.1966
     97  CA       -26.4030   46.5940   -2.6140 C.3    75  ARG75       0.1729
     98  C        -27.1220   46.2210   -1.3190 C.2    75  ARG75       0.2617
     99  O        -27.0220   46.9230   -0.3050 O.2    75  ARG75      -0.2715
    100  CB       -24.8880   46.5910   -2.4100 C.3    75  ARG75       0.0348
    101  CG       -24.0810   46.9160   -3.6710 C.3    75  ARG75       0.0492
    102  CD       -24.3990   45.9820   -4.8300 C.3    75  ARG75       0.2205
    103  NE       -23.3940   46.0550   -5.8880 N.pl3  75  ARG75      -0.0865
    104  CZ       -23.4730   45.4080   -7.0510 C.cat  75  ARG75       0.5346
    105  NH1      -22.5050   45.5290   -7.9460 N.pl3  75  ARG75       0.1354
    106  NH2      -24.5240   44.6460   -7.3220 N.pl3  75  ARG75       0.1354
    107  N        -27.8380   45.1000   -1.3600 N.am   76  SER76      -0.1936
    108  CA       -28.6370   44.6230   -0.2270 C.3    76  SER76       0.2055
    109  C        -27.9110   43.9430    0.9150 C.2    76  SER76       0.2642
    110  O        -28.4760   43.7680    1.9790 O.2    76  SER76      -0.2714
    111  CB       -29.7210   43.6710   -0.7220 C.3    76  SER76       0.2130
    112  OG       -29.1500   42.4890   -1.2550 O.3    76  SER76      -0.2179
    113  N        -26.6740   43.5420    0.7000 N.am   77  ALA77      -0.1977
    114  CA       -25.9280   42.8770    1.7470 C.3    77  ALA77       0.1597
    115  C        -24.4470   42.9620    1.4500 C.2    77  ALA77       0.2287
    116  O        -24.0550   43.4230    0.3730 O.2    77  ALA77      -0.2864
    117  CB       -26.3630   41.4270    1.8360 C.3    77  ALA77       0.0319
    118  N        -20.8240   41.3110    0.6480 N.3    79  VAL79      -0.1245
    119  CA       -20.2860   40.1140    0.0240 C.3    79  VAL79       0.1561
    120  C        -18.7940   40.1930    0.2310 C.2    79  VAL79       0.2260
    121  O        -18.1280   41.1170   -0.2360 O.2    79  VAL79      -0.2867
    122  CB       -20.6070   40.0310   -1.4720 C.3    79  VAL79       0.0252
    123  CG1      -19.9430   38.7900   -2.0710 C.3    79  VAL79       0.0019
    124  CG2      -22.1050   39.9580   -1.6710 C.3    79  VAL79       0.0019
    125  N        -31.6310   30.3270   -3.4230 N.3   116  ARG116     -0.1245
    126  CA       -31.3510   31.2130   -2.2960 C.3   116  ARG116      0.1563
    127  C        -32.6010   31.6270   -1.5280 C.2   116  ARG116      0.2260
    128  O        -32.5520   31.8370   -0.3140 O.2   116  ARG116     -0.2867
    129  CB       -30.6050   32.4520   -2.7870 C.3   116  ARG116      0.0307
    130  CG       -29.2810   32.1200   -3.4260 C.3   116  ARG116      0.0489
    131  CD       -28.7350   33.2670   -4.2620 C.3   116  ARG116      0.2205
    132  NE       -27.6790   32.7910   -5.1580 N.pl3 116  ARG116     -0.0865
    133  CZ       -26.9010   33.5650   -5.9120 C.cat 116  ARG116      0.5346
    134  NH1      -25.9780   33.0120   -6.6830 N.pl3 116  ARG116      0.1354
    135  NH2      -27.0380   34.8840   -5.8890 N.pl3 116  ARG116      0.1354
    136  N        -33.3380   28.6180    0.7310 N.3   119  LYS119     -0.1231
    137  CA       -32.3450   28.5950    1.7830 C.3   119  LYS119      0.1693
    138  C        -32.6310   29.6530    2.8470 C.2   119  LYS119      0.2592
    139  O        -32.6270   29.3730    4.0520 O.2   119  LYS119     -0.2718
    140  CB       -30.9610   28.8470    1.1980 C.3   119  LYS119      0.0285
    141  CG       -30.2900   27.6420    0.5910 C.3   119  LYS119      0.0035
    142  CD       -28.7770   27.8570    0.5880 C.3   119  LYS119      0.0206
    143  CE       -27.9740   26.5800    0.3260 C.3   119  LYS119      0.1093
    144  NZ       -28.1480   26.0530   -1.0540 N.3   119  LYS119     -0.1314
    145  N        -32.8760   30.8750    2.3830 N.am  120  THR120     -0.1953
    146  CA       -33.1360   31.9900    3.2660 C.3   120  THR120      0.1897
    147  C        -34.4740   31.8740    3.9910 C.2   120  THR120      0.2313
    148  O        -34.6030   32.3130    5.1420 O.2   120  THR120     -0.2863
    149  CB       -33.0500   33.3020    2.4810 C.3   120  THR120      0.1794
    150  OG1      -31.8040   33.3280    1.7950 O.3   120  THR120     -0.2208
    151  CG2      -33.0840   34.4970    3.4080 C.3   120  THR120      0.0378
@<TRIPOS>BOND
     1    86    85    2
     2    12    11    2
     3    85    84    1
     4    70    67    1
     5    70    71    1
     6    69    68    2
     7    11    10    1
     8    67    68    1
     9    67    66    1
    10    65    64    2
    11    71    72    1
    12    68    75   am
    13    84    83    1
    14    54    53    2
    15    51    52    1
    16    64    66   am
    17    64    63    1
    18    10    13    1
    19    10     9    1
    20   105   104    1
    21    13    14    1
    22    83    77   am
    23    78    77    2
    24    77    76    1
    25    75    76    1
    26    72    73   ar
    27    72    74   ar
    28   106   104    1
    29    53    52    1
    30    53    62   am
    31   104   103    2
    32    76    79    1
    33    52    55    1
    34    63    62    1
    35   134   133    1
    36    60    58   ar
    37    60    61   ar
    38    58    56   ar
    39    61    59   ar
    40   133   135    1
    41   133   132    2
    42   103   102    1
    43    56    55    1
    44    56    57   ar
    45    59    57   ar
    46    82    80    1
    47    79    80    1
    48   132   131    1
    49    80    81    1
    50   102   101    1
    51     8     6    1
    52    87    88    1
    53   131   130    1
    54     6     5    1
    55    49    48    1
    56    88    89    1
    57    88    91    1
    58   101   100    1
    59    47    48    1
    60    47    44    1
    61   130   129    1
    62   125   126    1
    63    50    48    1
    64    45    44    1
    65    45    46    2
    66    96    89   am
    67    96    97    1
    68    89    90    2
    69   129   126    1
    70    44    43    1
    71     5     7    1
    72     5     2    1
    73    91    92    1
    74    97   100    1
    75    97    98    1
    76   126   127    1
    77     2     1    1
    78     2     3    1
    79   123   122    1
    80   124   122    1
    81   127   128    2
    82    92    93    1
    83   122   119    1
    84   107    98   am
    85   107   108    1
    86    98    99    2
    87   112   111    1
    88    95    93   ar
    89   144   143    1
    90     3     4    2
    91   111   108    1
    92    93    94   ar
    93    22    20    1
    94   121   120    2
    95   108   109    1
    96   119   120    1
    97   119   118    1
    98    20    19    1
    99   143   142    1
   100   116   115    2
   101   142   141    1
   102   141   140    1
   103   113   109   am
   104   113   114    1
   105   136   137    1
   106   109   110    2
   107   140   137    1
   108   115   114    1
   109    19    21    1
   110    19    16    1
   111   114   117    1
   112   137   138    1
   113   150   149    1
   114    16    15    1
   115    16    17    1
   116   145   138   am
   117   145   146    1
   118   149   146    1
   119   149   151    1
   120    41    42    2
   121    41    40    1
   122   138   139    2
   123   146   147    1
   124    40    39    1
   125    37    35    1
   126    17    18    2
   127   147   148    2
   128    39    33   am
   129    34    33    2
   130    35    36    1
   131    35    32    1
   132    33    32    1
   133    36    38    1
   134    32    31    1
   135    29    27    1
   136    23    24    1
   137    27    24    1
   138    27    28    1
   139    24    25    1
   140    28    30    1
   141    25    26    2
