@<TRIPOS>MOLECULE
tmp/2oz6A00.pdb
 100 96 0 0 0
SMALL
GASTEIGER

@<TRIPOS>ATOM
      1  N        -22.6240   46.3550   14.9160 N.3    51  GLY51      -0.1210
      2  CA       -21.3940   45.7040   14.5030 C.3    51  GLY51       0.1956
      3  C        -21.5590   44.1920   14.5140 C.2    51  GLY51       0.2612
      4  O        -20.6630   43.4610   14.0800 O.2    51  GLY51      -0.2717
      5  N        -22.6940   43.7140   15.0320 N.am   52  ARG52      -0.1965
      6  CA       -22.9740   42.2790   15.0590 C.3    52  ARG52       0.1729
      7  C        -23.2100   41.8810   13.6050 C.2    52  ARG52       0.2616
      8  O        -24.0300   42.4870   12.9180 O.2    52  ARG52      -0.2715
      9  CB       -24.2410   41.9790   15.8790 C.3    52  ARG52       0.0348
     10  CG       -24.0470   41.8830   17.3780 C.3    52  ARG52       0.0492
     11  CD       -25.2540   42.4550   18.1080 C.3    52  ARG52       0.2205
     12  NE       -26.3730   41.5330   18.2490 N.pl3  52  ARG52      -0.0865
     13  CZ       -27.6580   41.9040   18.2090 C.cat  52  ARG52       0.5346
     14  NH1      -27.9860   43.1840   18.0300 N.pl3  52  ARG52       0.1354
     15  NH2      -28.6300   41.0090   18.3830 N.pl3  52  ARG52       0.1354
     16  N        -22.4930   40.8740   13.1270 N.am   53  GLU53      -0.1963
     17  CA       -22.6570   40.4450   11.7520 C.3    53  GLU53       0.1733
     18  C        -23.3530   39.0920   11.6940 C.2    53  GLU53       0.2616
     19  O        -23.1750   38.2610   12.5830 O.2    53  GLU53      -0.2715
     20  CB       -21.3010   40.3130   11.0680 C.3    53  GLU53       0.0429
     21  CG       -20.1900   41.1550   11.6620 C.3    53  GLU53       0.1163
     22  CD       -18.8410   40.9200   10.9750 C.2    53  GLU53       0.3649
     23  OE1      -18.3720   39.7500   10.9430 O.co2  53  GLU53      -0.2457
     24  OE2      -18.2520   41.9060   10.4690 O.co2  53  GLU53      -0.2457
     25  N        -24.1570   38.8840   10.6530 N.am   54  MET54      -0.1977
     26  CA       -24.8260   37.6030   10.4590 C.3    54  MET54       0.1605
     27  C        -24.5550   37.0510    9.0660 C.2    54  MET54       0.2287
     28  O        -24.7960   37.7160    8.0530 O.2    54  MET54      -0.2864
     29  CB       -26.3390   37.6870   10.6570 C.3    54  MET54       0.0413
     30  CG       -26.9840   36.3230   10.3990 C.3    54  MET54       0.0598
     31  SD       -28.6730   36.0940   10.9560 S.3    54  MET54      -0.1393
     32  CE       -28.3950   35.5270   12.6150 C.3    54  MET54       0.0692
     33  N        -16.6860   31.6820   16.2280 N.3   163  GLN163     -0.1245
     34  CA       -17.1510   33.0000   15.7790 C.3   163  GLN163      0.1566
     35  C        -18.0030   32.8910   14.5110 C.2   163  GLN163      0.2260
     36  O        -19.0400   33.5320   14.4010 O.2   163  GLN163     -0.2867
     37  CB       -15.9590   33.9360   15.5190 C.3   163  GLN163      0.0367
     38  CG       -14.9450   34.0560   16.6760 C.3   163  GLN163      0.0905
     39  CD       -13.8610   32.9470   16.6680 C.2   163  GLN163      0.2608
     40  OE1      -14.1420   31.7620   16.9240 O.2   163  GLN163     -0.2717
     41  NE2      -12.6130   33.3420   16.3670 N.am  163  GLN163     -0.0878
     42  N        -21.3220   31.4720   15.2750 N.3   166  GLY166     -0.1210
     43  CA       -22.1030   32.4910   15.9470 C.3   166  GLY166      0.1956
     44  C        -22.7060   33.4340   14.9250 C.2   166  GLY166      0.2611
     45  O        -23.8760   33.7870   15.0100 O.2   166  GLY166     -0.2717
     46  N        -21.8960   33.8400   13.9550 N.am  167  ARG167     -0.1979
     47  CA       -22.3590   34.7250   12.8960 C.3   167  ARG167      0.1597
     48  C        -23.5040   34.0610   12.1310 C.2   167  ARG167      0.2287
     49  O        -24.4920   34.7110   11.7930 O.2   167  ARG167     -0.2864
     50  CB       -21.2020   35.0730   11.9370 C.3   167  ARG167      0.0334
     51  CG       -20.2190   36.1080   12.4880 C.3   167  ARG167      0.0492
     52  CD       -19.1380   36.5220   11.4860 C.3   167  ARG167      0.2205
     53  NE       -18.1570   35.4610   11.2320 N.pl3 167  ARG167     -0.0865
     54  CZ       -17.0430   35.2610   11.9370 C.cat 167  ARG167      0.5346
     55  NH1      -16.2240   34.2620   11.6250 N.pl3 167  ARG167      0.1354
     56  NH2      -16.7370   36.0650   12.9480 N.pl3 167  ARG167      0.1354
     57  N        -26.4930   33.4270   15.0250 N.3   170  GLY170     -0.1210
     58  CA       -26.9520   34.6350   15.6700 C.3   170  GLY170      0.1956
     59  C        -26.8230   34.5640   17.1760 C.2   170  GLY170      0.2612
     60  O        -27.8050   34.7140   17.9030 O.2   170  GLY170     -0.2717
     61  N        -25.6090   34.3100   17.6460 N.am  171  CYS171     -0.1956
     62  CA       -25.3350   34.2540   19.0690 C.3   171  CYS171      0.1843
     63  C        -23.8420   34.4960   19.2280 C.2   171  CYS171      0.2626
     64  O        -23.1050   34.4760   18.2460 O.2   171  CYS171     -0.2714
     65  CB       -25.7510   32.9060   19.6690 C.3   171  CYS171      0.0997
     66  SG       -24.7270   31.4730   19.2620 S.3   171  CYS171     -0.0797
     67  N        -23.4050   34.7570   20.4530 N.am  172  SER172     -0.1936
     68  CA       -21.9950   35.0170   20.7400 C.3   172  SER172      0.2055
     69  C        -21.1620   33.7600   20.5670 C.2   172  SER172      0.2643
     70  O        -21.6970   32.6510   20.5850 O.2   172  SER172     -0.2714
     71  CB       -21.8450   35.4750   22.1770 C.3   172  SER172      0.2130
     72  OG       -22.1220   34.3900   23.0560 O.3   172  SER172     -0.2179
     73  N        -19.8530   33.9160   20.4260 N.am  173  ARG173     -0.1963
     74  CA       -18.9990   32.7440   20.2920 C.3   173  ARG173      0.1729
     75  C        -19.0020   31.9480   21.5970 C.2   173  ARG173      0.2616
     76  O        -18.8620   30.7280   21.5820 O.2   173  ARG173     -0.2715
     77  CB       -17.5750   33.1510   19.9150 C.3   173  ARG173      0.0348
     78  CG       -17.0430   34.3360   20.6860 C.3   173  ARG173      0.0492
     79  CD       -15.5310   34.4660   20.5370 C.3   173  ARG173      0.2205
     80  NE       -14.9790   35.2740   21.6250 N.pl3 173  ARG173     -0.0865
     81  CZ       -14.9690   36.6060   21.6580 C.cat 173  ARG173      0.5346
     82  NH1      -14.4530   37.2380   22.7060 N.pl3 173  ARG173      0.1354
     83  NH2      -15.4460   37.3070   20.6290 N.pl3 173  ARG173      0.1354
     84  N        -19.1800   32.6490   22.7210 N.am  174  GLU174     -0.1963
     85  CA       -19.2330   32.0170   24.0380 C.3   174  GLU174      0.1733
     86  C        -20.3570   30.9820   24.1060 C.2   174  GLU174      0.2616
     87  O        -20.1650   29.8500   24.5810 O.2   174  GLU174     -0.2715
     88  CB       -19.4680   33.0550   25.1370 C.3   174  GLU174      0.0429
     89  CG       -18.2400   33.8570   25.5350 C.3   174  GLU174      0.1163
     90  CD       -17.8870   34.9640   24.5550 C.2   174  GLU174      0.3649
     91  OE1      -16.7500   35.4840   24.6480 O.co2 174  GLU174     -0.2457
     92  OE2      -18.7370   35.3250   23.7060 O.co2 174  GLU174     -0.2457
     93  N        -21.5360   31.3760   23.6410 N.am  175  MET175     -0.1977
     94  CA       -22.6640   30.4710   23.6540 C.3   175  MET175      0.1605
     95  C        -22.4160   29.3010   22.6990 C.2   175  MET175      0.2287
     96  O        -22.8330   28.1700   22.9570 O.2   175  MET175     -0.2864
     97  CB       -23.9310   31.2160   23.2680 C.3   175  MET175      0.0413
     98  CG       -25.2110   30.5510   23.7450 C.3   175  MET175      0.0598
     99  SD       -26.6410   31.5300   23.2320 S.3   175  MET175     -0.1393
    100  CE       -26.0570   33.2380   23.5530 C.3   175  MET175      0.0692
@<TRIPOS>BOND
     1    28    27    2
     2    27    26    1
     3    30    29    1
     4    30    31    1
     5    26    25    1
     6    26    29    1
     7    24    22   ar
     8    25    18   am
     9    23    22   ar
    10    31    32    1
    11    22    21    1
    12    20    21    1
    13    20    17    1
    14    53    52    1
    15    53    54    2
    16    52    51    1
    17    55    54    1
    18    18    17    1
    19    18    19    2
    20    17    16    1
    21    49    48    2
    22    54    56    1
    23    50    51    1
    24    50    47    1
    25    48    47    1
    26    47    46    1
    27     8     7    2
    28    16     7   am
    29     7     6    1
    30    46    44   am
    31     4     3    2
    32    36    35    2
    33     2     3    1
    34     2     1    1
    35    35    34    1
    36     3     5   am
    37    44    45    2
    38    44    43    1
    39    57    58    1
    40     5     6    1
    41     6     9    1
    42    42    43    1
    43    37    34    1
    44    37    38    1
    45    58    59    1
    46    34    33    1
    47     9    10    1
    48    41    39   am
    49    39    38    1
    50    39    40    2
    51    59    61   am
    52    59    60    2
    53    10    11    1
    54    61    62    1
    55    14    13    1
    56    11    12    1
    57    13    12    2
    58    13    15    1
    59    64    63    2
    60    62    63    1
    61    62    65    1
    62    63    67   am
    63    66    65    1
    64    77    74    1
    65    77    78    1
    66    74    73    1
    67    74    75    1
    68    73    69   am
    69    67    68    1
    70    79    78    1
    71    79    80    1
    72    69    70    2
    73    69    68    1
    74    83    81    1
    75    68    71    1
    76    76    75    2
    77    75    84   am
    78    80    81    2
    79    81    82    1
    80    71    72    1
    81    95    96    2
    82    95    94    1
    83    84    85    1
    84    99   100    1
    85    99    98    1
    86    97    94    1
    87    97    98    1
    88    93    94    1
    89    93    86   am
    90    92    90   ar
    91    85    86    1
    92    85    88    1
    93    86    87    2
    94    90    91   ar
    95    90    89    1
    96    88    89    1
