@<TRIPOS>MOLECULE
tmp/2oz7A00.pdb
 204 191 0 0 0
SMALL
GASTEIGER

@<TRIPOS>ATOM
      1  N         32.2120   -2.3780   -8.6650 N.3    27  PHE27      -0.1241
      2  CA        32.0540   -2.6350   -7.2430 C.3    27  PHE27       0.1605
      3  C         33.1610   -1.8840   -6.5000 C.2    27  PHE27       0.2264
      4  O         32.9230   -1.2480   -5.4790 O.2    27  PHE27      -0.2867
      5  CB        32.1610   -4.1380   -6.9710 C.3    27  PHE27       0.0534
      6  CG        32.1310   -4.4960   -5.5160 C.ar   27  PHE27      -0.0203
      7  CD1       31.0560   -4.1240   -4.7160 C.ar   27  PHE27      -0.0042
      8  CD2       33.1830   -5.1980   -4.9390 C.ar   27  PHE27      -0.0042
      9  CE1       31.0290   -4.4440   -3.3600 C.ar   27  PHE27      -0.0003
     10  CE2       33.1670   -5.5230   -3.5850 C.ar   27  PHE27      -0.0003
     11  CZ        32.0880   -5.1460   -2.7930 C.ar   27  PHE27      -0.0000
     12  N         32.6030    1.0220   -3.7790 N.3    31  LEU31      -0.1245
     13  CA        33.0460    0.6540   -2.4420 C.3    31  LEU31       0.1561
     14  C         33.9940    1.7220   -1.8980 C.2    31  LEU31       0.2260
     15  O         33.8340    2.1920   -0.7680 O.2    31  LEU31      -0.2867
     16  CB        33.7610   -0.7000   -2.4840 C.3    31  LEU31       0.0270
     17  CG        34.4540   -1.1540   -1.1990 C.3    31  LEU31       0.0019
     18  CD1       33.4310   -1.1900   -0.0750 C.3    31  LEU31       0.0001
     19  CD2       35.0950   -2.5350   -1.4040 C.3    31  LEU31       0.0001
     20  N         31.8940    4.7840   -1.0880 N.3    34  LEU34      -0.1231
     21  CA        31.0290    4.5990    0.0740 C.3    34  LEU34       0.1693
     22  C         31.8450    4.7040    1.3590 C.2    34  LEU34       0.2592
     23  O         31.4800    5.4400    2.2770 O.2    34  LEU34      -0.2718
     24  CB        30.3230    3.2360    0.0200 C.3    34  LEU34       0.0284
     25  CG        29.1490    3.1220   -0.9540 C.3    34  LEU34       0.0019
     26  CD1       28.7420    1.6710   -1.1230 C.3    34  LEU34       0.0001
     27  CD2       27.9840    3.9500   -0.4340 C.3    34  LEU34       0.0001
     28  N         32.9500    3.9700    1.4230 N.am   35  ASN35      -0.1974
     29  CA        33.8110    3.9890    2.6040 C.3    35  ASN35       0.1688
     30  C         34.3830    5.3700    2.8910 C.2    35  ASN35       0.2292
     31  O         34.4390    5.7960    4.0450 O.2    35  ASN35      -0.2864
     32  CB        34.9560    2.9930    2.4420 C.3    35  ASN35       0.1181
     33  CG        34.5030    1.5610    2.6120 C.2    35  ASN35       0.2629
     34  OD1       35.2310    0.6200    2.2850 O.2    35  ASN35      -0.2716
     35  ND2       33.2950    1.3860    3.1320 N.am   35  ASN35      -0.0877
     36  N         33.0640    8.1780    2.0860 N.3    37  LEU37      -0.1231
     37  CA        31.9370    8.9510    2.5970 C.3    37  LEU37       0.1693
     38  C         31.6560    8.5450    4.0460 C.2    37  LEU37       0.2592
     39  O         31.3880    9.3930    4.9020 O.2    37  LEU37      -0.2718
     40  CB        30.6930    8.7080    1.7380 C.3    37  LEU37       0.0284
     41  CG        29.4200    9.4290    2.1830 C.3    37  LEU37       0.0019
     42  CD1       29.6770   10.9290    2.3100 C.3    37  LEU37       0.0001
     43  CD2       28.3140    9.1470    1.1870 C.3    37  LEU37       0.0001
     44  N         31.7380    7.2410    4.3130 N.am   38  GLY38      -0.1957
     45  CA        31.4910    6.7340    5.6510 C.3    38  GLY38       0.1869
     46  C         32.4270    7.3270    6.6830 C.2    38  GLY38       0.2309
     47  O         31.9890    7.8090    7.7340 O.2    38  GLY38      -0.2863
     48  N         31.7080   11.1090    7.1860 N.3    41  GLN41      -0.1245
     49  CA        30.5300   11.3460    8.0000 C.3    41  GLN41       0.1566
     50  C         30.7720   11.0550    9.4710 C.2    41  GLN41       0.2260
     51  O         30.3640   11.8250   10.3470 O.2    41  GLN41      -0.2867
     52  CB        29.3830   10.4870    7.4980 C.3    41  GLN41       0.0367
     53  CG        28.7810   10.9810    6.2130 C.3    41  GLN41       0.0905
     54  CD        27.8120    9.9910    5.6450 C.2    41  GLN41       0.2608
     55  OE1       26.9900   10.3210    4.7820 O.2    41  GLN41      -0.2717
     56  NE2       27.8990    8.7550    6.1210 N.am   41  GLN41      -0.0878
     57  N         25.9240    4.0370   14.9920 N.3    71  TRP71      -0.1227
     58  CA        26.4600    4.6040   13.7610 C.3    71  TRP71       0.1737
     59  C         25.6930    4.2080   12.4970 C.2    71  TRP71       0.2595
     60  O         25.1050    5.0600   11.8310 O.2    71  TRP71      -0.2718
     61  CB        27.9300    4.2090   13.6140 C.3    71  TRP71       0.0564
     62  CG        28.4980    4.4740   12.2460 C.ar   71  TRP71       0.0003
     63  CD1       28.6090    5.6850   11.6150 C.ar   71  TRP71       0.0946
     64  CD2       29.0380    3.5010   11.3420 C.ar   71  TRP71       0.0152
     65  NE1       29.1840    5.5220   10.3790 N.ar   71  TRP71      -0.2442
     66  CE2       29.4580    4.1930   10.1850 C.ar   71  TRP71       0.0810
     67  CE3       29.2070    2.1080   11.3990 C.ar   71  TRP71       0.0012
     68  CZ2       30.0380    3.5390    9.0880 C.ar   71  TRP71       0.0191
     69  CZ3       29.7830    1.4570   10.3110 C.ar   71  TRP71       0.0001
     70  CH2       30.1920    2.1760    9.1700 C.ar   71  TRP71       0.0015
     71  N         25.6930    2.9190   12.1720 N.am   72  MET72      -0.1979
     72  CA        25.0180    2.4410   10.9670 C.3    72  MET72       0.1605
     73  C         23.5460    2.8510   10.8730 C.2    72  MET72       0.2287
     74  O         23.1100    3.3500    9.8430 O.2    72  MET72      -0.2864
     75  CB        25.1370    0.9180   10.8600 C.3    72  MET72       0.0413
     76  CG        24.6880    0.3650    9.5060 C.3    72  MET72       0.0598
     77  SD        25.7830    0.8140    8.1520 S.3    72  MET72      -0.1393
     78  CE        27.1810   -0.2450    8.5440 C.3    72  MET72       0.0692
     79  N         23.1780    6.4700   10.0090 N.3    75  MET75      -0.1230
     80  CA        23.4730    6.7820    8.6160 C.3    75  MET75       0.1702
     81  C         22.3300    6.3220    7.7190 C.2    75  MET75       0.2592
     82  O         21.9890    6.9960    6.7490 O.2    75  MET75      -0.2718
     83  CB        24.7860    6.1310    8.1800 C.3    75  MET75       0.0401
     84  CG        26.0080    6.6580    8.9200 C.3    75  MET75       0.0596
     85  SD        26.2460    8.4550    8.7590 S.3    75  MET75      -0.1393
     86  CE        25.2230    9.0780   10.0840 C.3    75  MET75       0.0692
     87  N         21.7340    5.1800    8.0420 N.am   76  VAL76      -0.1980
     88  CA        20.6130    4.6930    7.2490 C.3    76  VAL76       0.1595
     89  C         19.4750    5.6960    7.3170 C.2    76  VAL76       0.2287
     90  O         18.9770    6.1520    6.2900 O.2    76  VAL76      -0.2864
     91  CB        20.0890    3.3350    7.7600 C.3    76  VAL76       0.0276
     92  CG1       18.7490    3.0220    7.1200 C.3    76  VAL76       0.0022
     93  CG2       21.0780    2.2390    7.4180 C.3    76  VAL76       0.0022
     94  N         20.3760    9.1260    5.7010 N.3    79  MET79      -0.1245
     95  CA        20.4740    8.9270    4.2590 C.3    79  MET79       0.1570
     96  C         19.0590    8.8560    3.6860 C.2    79  MET79       0.2261
     97  O         18.7610    9.4580    2.6520 O.2    79  MET79      -0.2867
     98  CB        21.2370    7.6330    3.9580 C.3    79  MET79       0.0387
     99  CG        21.5680    7.4030    2.4920 C.3    79  MET79       0.0595
    100  SD        20.2040    6.7370    1.5050 S.3    79  MET79      -0.1393
    101  CE        20.3290    4.9810    1.9050 C.3    79  MET79       0.0692
    102  N         17.6140   12.3060    3.3700 N.3    82  ARG82      -0.1245
    103  CA        18.1830   13.0700    2.2620 C.3    82  ARG82       0.1563
    104  C         17.5840   12.6110    0.9380 C.2    82  ARG82       0.2260
    105  O         17.3600   13.4240    0.0280 O.2    82  ARG82      -0.2867
    106  CB        19.7090   12.9140    2.2050 C.3    82  ARG82       0.0307
    107  CG        20.4640   13.6250    3.3250 C.3    82  ARG82       0.0489
    108  CD        21.9620   13.7090    3.0170 C.3    82  ARG82       0.2205
    109  NE        22.5960   12.3970    2.8770 N.pl3  82  ARG82      -0.0865
    110  CZ        23.0070   11.6440    3.8930 C.cat  82  ARG82       0.5346
    111  NH1       22.8560   12.0590    5.1410 N.pl3  82  ARG82       0.1354
    112  NH2       23.5860   10.4740    3.6610 N.pl3  82  ARG82       0.1354
    113  N         23.0970    9.1080   -1.1040 N.3    94  PHE94      -0.1241
    114  CA        24.1350    8.9740   -0.0890 C.3    94  PHE94       0.1605
    115  C         24.8470   10.3000    0.0600 C.2    94  PHE94       0.2264
    116  O         25.2450   10.6960    1.1540 O.2    94  PHE94      -0.2867
    117  CB        25.1520    7.8960   -0.4820 C.3    94  PHE94       0.0534
    118  CG        24.6130    6.5000   -0.4100 C.ar   94  PHE94      -0.0203
    119  CD1       24.1420    5.8580   -1.5490 C.ar   94  PHE94      -0.0042
    120  CD2       24.5750    5.8210    0.8060 C.ar   94  PHE94      -0.0042
    121  CE1       23.6370    4.5560   -1.4870 C.ar   94  PHE94      -0.0003
    122  CE2       24.0720    4.5170    0.8840 C.ar   94  PHE94      -0.0003
    123  CZ        23.6020    3.8830   -0.2650 C.ar   94  PHE94      -0.0000
    124  N         26.6680   -2.3910   -6.2800 N.3   108  SER108     -0.1217
    125  CA        27.1940   -2.3360   -4.9180 C.3   108  SER108      0.1889
    126  C         27.0920   -3.6970   -4.2230 C.2   108  SER108      0.2288
    127  O         27.7910   -3.9560   -3.2380 O.2   108  SER108     -0.2866
    128  CB        26.4240   -1.3060   -4.1030 C.3   108  SER108      0.2089
    129  OG        25.0890   -1.7330   -3.9120 O.3   108  SER108     -0.2183
    130  N         24.4790   -4.7760   -2.6760 N.3   110  MET110     -0.1245
    131  CA        23.5960   -4.6480   -1.5170 C.3   110  MET110      0.1570
    132  C         22.2120   -4.2550   -2.0190 C.2   110  MET110      0.2261
    133  O         21.4870   -3.5040   -1.3500 O.2   110  MET110     -0.2867
    134  CB        24.0550   -3.5330   -0.5890 C.3   110  MET110      0.0387
    135  CG        25.5320   -3.3630   -0.4040 C.3   110  MET110      0.0595
    136  SD        25.6970   -2.0390    0.8030 S.3   110  MET110     -0.1393
    137  CE        25.5340   -2.9710    2.3040 C.3   110  MET110      0.0692
    138  N         16.0190    0.2070    2.1350 N.3   117  MET117     -0.1245
    139  CA        16.3070    1.5810    2.5340 C.3   117  MET117      0.1570
    140  C         15.4450    2.5390    1.7200 C.2   117  MET117      0.2261
    141  O         15.0430    3.6010    2.2090 O.2   117  MET117     -0.2867
    142  CB        17.7970    1.9000    2.3570 C.3   117  MET117      0.0387
    143  CG        18.6990    1.1650    3.3480 C.3   117  MET117      0.0595
    144  SD        20.3780    1.8320    3.4850 S.3   117  MET117     -0.1393
    145  CE        21.1800    0.9900    2.1300 C.3   117  MET117      0.0692
    146  N         23.1180   -4.5020    7.1960 N.3   203  LEU203     -0.1245
    147  CA        24.2610   -3.7120    6.7550 C.3   203  LEU203      0.1561
    148  C         25.4640   -4.0020    7.6450 C.2   203  LEU203      0.2260
    149  O         26.6070   -3.9420    7.2060 O.2   203  LEU203     -0.2867
    150  CB        23.9190   -2.2290    6.8030 C.3   203  LEU203      0.0270
    151  CG        22.7990   -1.8470    5.8350 C.3   203  LEU203      0.0019
    152  CD1       22.4810   -0.3820    5.9650 C.3   203  LEU203      0.0001
    153  CD2       23.2400   -2.1740    4.4150 C.3   203  LEU203      0.0001
    154  N         26.7950   -7.3320    6.3910 N.3   206  PHE206     -0.1227
    155  CA        27.4360   -7.1100    5.1060 C.3   206  PHE206      0.1736
    156  C         28.8080   -6.4650    5.3020 C.2   206  PHE206      0.2595
    157  O         29.8080   -6.8980    4.7140 O.2   206  PHE206     -0.2718
    158  CB        26.5330   -6.2290    4.2480 C.3   206  PHE206      0.0547
    159  CG        26.7960   -6.3400    2.7850 C.ar  206  PHE206     -0.0202
    160  CD1       27.9200   -5.7430    2.2150 C.ar  206  PHE206     -0.0042
    161  CD2       25.9260   -7.0550    1.9680 C.ar  206  PHE206     -0.0042
    162  CE1       28.1740   -5.8560    0.8480 C.ar  206  PHE206     -0.0003
    163  CE2       26.1680   -7.1740    0.6080 C.ar  206  PHE206     -0.0003
    164  CZ        27.2980   -6.5720    0.0440 C.ar  206  PHE206     -0.0000
    165  N         28.8620   -5.4450    6.1510 N.am  207  ALA207     -0.1980
    166  CA        30.1190   -4.7550    6.4190 C.3   207  ALA207      0.1597
    167  C         31.1620   -5.6820    7.0370 C.2   207  ALA207      0.2287
    168  O         32.3220   -5.6870    6.6300 O.2   207  ALA207     -0.2864
    169  CB        29.8730   -3.5580    7.3440 C.3   207  ALA207      0.0319
    170  N         32.4770   -8.1970    4.4920 N.3   210  LEU210     -0.1245
    171  CA        33.3660   -7.5560    3.5410 C.3   210  LEU210      0.1561
    172  C         34.7190   -7.2520    4.1710 C.2   210  LEU210      0.2260
    173  O         35.7530   -7.4760    3.5510 O.2   210  LEU210     -0.2867
    174  CB        32.7220   -6.2760    2.9980 C.3   210  LEU210      0.0270
    175  CG        33.2380   -5.7680    1.6500 C.3   210  LEU210      0.0019
    176  CD1       33.1220   -6.8690    0.6020 C.3   210  LEU210      0.0001
    177  CD2       32.4410   -4.5560    1.2230 C.3   210  LEU210      0.0001
    178  N         39.9580   -0.4760    4.0860 N.3   221  PHE221     -0.1241
    179  CA        38.8700    0.0630    4.8900 C.3   221  PHE221      0.1605
    180  C         39.4330    1.1690    5.7680 C.2   221  PHE221      0.2264
    181  O         40.4220    0.9630    6.4690 O.2   221  PHE221     -0.2867
    182  CB        38.2590   -1.0170    5.7890 C.3   221  PHE221      0.0534
    183  CG        37.0260   -1.6710    5.2210 C.ar  221  PHE221     -0.0203
    184  CD1       37.0960   -2.4630    4.0800 C.ar  221  PHE221     -0.0042
    185  CD2       35.7970   -1.5120    5.8470 C.ar  221  PHE221     -0.0042
    186  CE1       35.9600   -3.0900    3.5720 C.ar  221  PHE221     -0.0003
    187  CE2       34.6530   -2.1340    5.3470 C.ar  221  PHE221     -0.0003
    188  CZ        34.7360   -2.9260    4.2080 C.ar  221  PHE221     -0.0000
    189  N         36.1620    3.3800   10.4810 N.3   225  MET225     -0.1245
    190  CA        35.2120    2.3600   10.0560 C.3   225  MET225      0.1570
    191  C         35.7710    0.9920   10.4350 C.2   225  MET225      0.2261
    192  O         35.0680    0.1480   10.9850 O.2   225  MET225     -0.2867
    193  CB        34.9880    2.4230    8.5430 C.3   225  MET225      0.0387
    194  CG        34.1100    3.5780    8.0910 C.3   225  MET225      0.0595
    195  SD        33.7290    3.5020    6.3360 S.3   225  MET225     -0.1393
    196  CE        33.1470    1.7940    6.1870 C.3   225  MET225      0.0692
    197  N         33.8660   -1.7670   12.8810 N.3   229  ILE229     -0.1245
    198  CA        33.4710   -3.0410   12.2970 C.3   229  ILE229      0.1561
    199  C         34.1870   -4.2470   12.9120 C.2   229  ILE229      0.2260
    200  O         33.5800   -5.3060   13.0860 O.2   229  ILE229     -0.2867
    201  CB        33.6710   -3.0040   10.7610 C.3   229  ILE229      0.0252
    202  CG1       32.7240   -1.9480   10.1640 C.3   229  ILE229      0.0019
    203  CG2       33.3960   -4.3710   10.1420 C.3   229  ILE229      0.0019
    204  CD1       32.9380   -1.6770    8.6900 C.3   229  ILE229      0.0001
@<TRIPOS>BOND
     1     1     2    1
     2     2     5    1
     3     2     3    1
     4     5     6    1
     5     3     4    2
     6   124   125    1
     7     6     8   ar
     8     6     7   ar
     9     8    10   ar
    10   125   126    1
    11   125   128    1
    12     7     9   ar
    13   126   127    2
    14   128   129    1
    15    12    13    1
    16    10    11   ar
    17     9    11   ar
    18   130   131    1
    19    16    13    1
    20    16    17    1
    21    13    14    1
    22   132   131    1
    23   132   133    2
    24    14    15    2
    25   119   121   ar
    26   119   118   ar
    27   131   134    1
    28   121   123   ar
    29    19    17    1
    30    17    18    1
    31    26    25    1
    32   113   114    1
    33    20    21    1
    34    25    27    1
    35    25    24    1
    36   134   135    1
    37   117   118    1
    38   117   114    1
    39   118   120   ar
    40   135   136    1
    41   123   122   ar
    42   114   115    1
    43    24    21    1
    44   105   104    2
    45   164   163   ar
    46   164   162   ar
    47   115   116    2
    48    21    22    1
    49   176   175    1
    50   163   161   ar
    51   136   137    1
    52   120   122   ar
    53   162   160   ar
    54   104   103    1
    55    43    41    1
    56   177   175    1
    57    22    28   am
    58    22    23    2
    59    28    29    1
    60   100   101    1
    61   100    99    1
    62   175   174    1
    63   140   141    2
    64   140   139    1
    65    40    41    1
    66    40    37    1
    67   161   159   ar
    68    36    37    1
    69   145   144    1
    70   138   139    1
    71    41    42    1
    72   106   103    1
    73   106   107    1
    74   160   159   ar
    75   103   102    1
    76    34    33    2
    77   142   139    1
    78   142   143    1
    79    32    29    1
    80    32    33    1
    81    99    98    1
    82    37    38    1
    83    29    30    1
    84    33    35   am
    85    97    96    2
    86   159   158    1
    87   109   108    1
    88   109   110    2
    89    30    31    2
    90   174   171    1
    91   108   107    1
    92   143   144    1
    93   171   172    1
    94   171   170    1
    95   173   172    2
    96   186   184   ar
    97   186   188   ar
    98   112   110    1
    99    96    95    1
   100   110   111    1
   101    98    95    1
   102    38    44   am
   103    38    39    2
   104   184   183   ar
   105   178   179    1
   106   188   187   ar
   107   158   155    1
   108    95    94    1
   109    44    45    1
   110   153   151    1
   111   157   156    2
   112    55    54    2
   113   179   180    1
   114   179   182    1
   115   155   156    1
   116   155   154    1
   117   183   182    1
   118   183   185   ar
   119   156   165   am
   120   187   185   ar
   121    54    56   am
   122    54    53    1
   123    45    46    1
   124   180   181    2
   125   151   152    1
   126   151   150    1
   127   165   166    1
   128   196   195    1
   129    53    52    1
   130    90    89    2
   131   195   194    1
   132   166   167    1
   133   166   169    1
   134   168   167    2
   135    46    47    2
   136    82    81    2
   137   147   150    1
   138   147   146    1
   139   147   148    1
   140    92    91    1
   141    48    49    1
   142   149   148    2
   143    88    89    1
   144    88    91    1
   145    88    87    1
   146    93    91    1
   147    52    49    1
   148    81    87   am
   149    81    80    1
   150    49    50    1
   151   194   193    1
   152    77    78    1
   153    77    76    1
   154    83    80    1
   155    83    84    1
   156   193   190    1
   157    80    79    1
   158   204   202    1
   159    85    84    1
   160    85    86    1
   161    68    70   ar
   162    68    66   ar
   163    70    69   ar
   164    50    51    2
   165    76    75    1
   166    74    73    2
   167   190   191    1
   168   190   189    1
   169   203   201    1
   170   202   201    1
   171    66    65   ar
   172    66    64   ar
   173    69    67   ar
   174    65    63   ar
   175   191   192    2
   176   201   198    1
   177    75    72    1
   178    73    72    1
   179    72    71    1
   180    64    67   ar
   181    64    62   ar
   182    63    62   ar
   183    60    59    2
   184    71    59   am
   185    62    61    1
   186   198   197    1
   187   198   199    1
   188    59    58    1
   189   199   200    2
   190    61    58    1
   191    58    57    1
