@<TRIPOS>MOLECULE
tmp/2ozeA00.pdb
 157 150 0 0 0
SMALL
GASTEIGER

@<TRIPOS>ATOM
      1  N         39.7340   31.4670   17.7250 N.3    32  GLY32      -0.1210
      2  CA        38.4950   30.8100   17.3130 C.3    32  GLY32       0.1956
      3  C         37.4610   31.8670   17.0200 C.2    32  GLY32       0.2612
      4  O         37.5940   33.0130   17.4690 O.2    32  GLY32      -0.2717
      5  N         36.4550   31.4970   16.2350 N.am   33  GLY33      -0.1942
      6  CA        35.2960   32.3550   16.0340 C.3    33  GLY33       0.2014
      7  C         35.5180   33.5630   15.1520 C.2    33  GLY33       0.2639
      8  O         34.7840   34.5440   15.2590 O.2    33  GLY33      -0.2714
      9  N         36.4940   33.4950   14.2500 N.am   34  VAL34      -0.1963
     10  CA        36.7630   34.6330   13.3480 C.3    34  VAL34       0.1727
     11  C         36.3130   34.3840   11.9000 C.2    34  VAL34       0.2617
     12  O         36.6320   35.1860   11.0040 O.2    34  VAL34      -0.2715
     13  CB        38.2460   35.0300   13.3410 C.3    34  VAL34       0.0290
     14  CG1       38.6830   35.5270   14.7400 C.3    34  VAL34       0.0023
     15  CG2       39.1350   33.8610   12.8640 C.3    34  VAL34       0.0023
     16  N         35.5810   33.2890   11.6780 N.am   35  GLY35      -0.1940
     17  CA        35.0230   33.0190   10.3570 C.3    35  GLY35       0.2014
     18  C         35.8760   32.1750    9.4220 C.2    35  GLY35       0.2639
     19  O         35.6690   32.1970    8.2090 O.2    35  GLY35      -0.2714
     20  N         36.8510   31.4350    9.9570 N.am   36  LYS36      -0.1963
     21  CA        37.6500   30.5360    9.1020 C.3    36  LYS36       0.1728
     22  C         36.7960   29.4670    8.4170 C.2    36  LYS36       0.2617
     23  O         36.8720   29.2750    7.1960 O.2    36  LYS36      -0.2715
     24  CB        38.7930   29.8950    9.9110 C.3    36  LYS36       0.0311
     25  CG        39.7200   30.9510   10.5060 C.3    36  LYS36       0.0038
     26  CD        40.8810   30.3320   11.2420 C.3    36  LYS36       0.0206
     27  CE        40.3940   29.5580   12.4550 C.3    36  LYS36       0.1093
     28  NZ        39.7250   30.3510   13.5210 N.3    36  LYS36      -0.1314
     29  N         35.9820   28.7750    9.2030 N.am   37  SER37      -0.1936
     30  CA        35.1300   27.7170    8.6500 C.3    37  SER37       0.2055
     31  C         34.0500   28.3310    7.7470 C.2    37  SER37       0.2642
     32  O         33.7100   27.7610    6.6930 O.2    37  SER37      -0.2714
     33  CB        34.5330   26.8650    9.7850 C.3    37  SER37       0.2130
     34  OG        35.5840   26.0940   10.4230 O.3    37  SER37      -0.2179
     35  N         33.5320   29.5000    8.1390 N.am   38  LYS38      -0.1977
     36  CA        32.4760   30.1550    7.3430 C.3    38  LYS38       0.1596
     37  C         33.0020   30.6200    5.9940 C.2    38  LYS38       0.2287
     38  O         32.3620   30.3830    4.9590 O.2    38  LYS38      -0.2864
     39  CB        31.7970   31.3130    8.0840 C.3    38  LYS38       0.0298
     40  CG        30.6500   31.9910    7.2580 C.3    38  LYS38       0.0038
     41  CD        29.5760   30.9810    6.8800 C.3    38  LYS38       0.0206
     42  CE        28.8700   30.3910    8.1140 C.3    38  LYS38       0.1093
     43  NZ        27.7910   29.4110    7.6790 N.3    38  LYS38      -0.1314
     44  N         39.2290   19.0800   11.1370 N.3    60  ASP60      -0.1239
     45  CA        38.8010   19.4990   12.4680 C.3    60  ASP60       0.1674
     46  C         37.9680   18.3860   13.0520 C.2    60  ASP60       0.2266
     47  O         37.0720   17.8550   12.3790 O.2    60  ASP60      -0.2867
     48  CB        37.9700   20.7690   12.4000 C.3    60  ASP60       0.1410
     49  CG        37.8480   21.4510   13.7580 C.2    60  ASP60       0.3668
     50  OD1       37.7070   20.7230   14.7680 O.co2  60  ASP60      -0.2456
     51  OD2       37.9590   22.7020   13.8230 O.co2  60  ASP60      -0.2456
     52  N         33.0380   21.1940   11.6970 N.3    64  THR64      -0.1218
     53  CA        32.1690   22.3640   11.4820 C.3    64  THR64       0.1862
     54  C         31.8550   22.6720   10.0070 C.2    64  THR64       0.2287
     55  O         30.6850   22.8200    9.6360 O.2    64  THR64      -0.2866
     56  CB        32.7610   23.5650   12.2150 C.3    64  THR64       0.1770
     57  OG1       32.8690   23.2050   13.5910 O.3    64  THR64      -0.2211
     58  CG2       31.8670   24.8270   12.0670 C.3    64  THR64       0.0375
     59  N         40.9110   24.1130    9.4190 N.3   148  THR148     -0.1218
     60  CA        41.3450   23.2860   10.5440 C.3   148  THR148      0.1862
     61  C         41.1110   24.0170   11.8770 C.2   148  THR148      0.2287
     62  O         40.4690   25.0940   11.9420 O.2   148  THR148     -0.2866
     63  CB        42.8410   22.8340   10.3510 C.3   148  THR148      0.1770
     64  OG1       43.1720   21.7620   11.2730 O.3   148  THR148     -0.2211
     65  CG2       43.8400   24.0210   10.5320 C.3   148  THR148      0.0375
     66  N         41.9550   26.0530   15.5550 N.3   150  PRO150     -0.2116
     67  CA        42.7010   27.2490   15.9180 C.3   150  PRO150      0.1372
     68  C         43.8590   26.9840   16.8830 C.2   150  PRO150      0.2244
     69  O         44.5400   27.9020   17.2730 O.2   150  PRO150     -0.2868
     70  CB        41.6410   28.1010   16.6330 C.3   150  PRO150      0.0268
     71  CG        40.7380   27.0730   17.3260 C.3   150  PRO150      0.0207
     72  CD        40.7350   25.8680   16.3810 C.3   150  PRO150      0.0892
     73  N         37.5820   40.7450   10.0680 N.3   206  TYR206     -0.1241
     74  CA        36.2060   40.4040   10.4030 C.3   206  TYR206      0.1605
     75  C         35.7030   41.5060   11.3270 C.2   206  TYR206      0.2264
     76  O         36.3110   41.7690   12.3740 O.2   206  TYR206     -0.2867
     77  CB        36.1420   39.0450   11.1100 C.3   206  TYR206      0.0534
     78  CG        34.7350   38.6160   11.5170 C.ar  206  TYR206     -0.0201
     79  CD1       33.6410   38.8260   10.6660 C.ar  206  TYR206     -0.0009
     80  CD2       34.5060   37.9880   12.7410 C.ar  206  TYR206     -0.0009
     81  CE1       32.3500   38.4280   11.0300 C.ar  206  TYR206      0.0417
     82  CE2       33.2140   37.5730   13.1140 C.ar  206  TYR206      0.0417
     83  CZ        32.1360   37.8120   12.2470 C.ar  206  TYR206      0.1957
     84  OH        30.8450   37.4240   12.6060 O.3   206  TYR206     -0.2866
     85  N         35.1040   41.1910    5.7860 N.3   237  ILE237     -0.1231
     86  CA        33.8920   40.4740    6.1720 C.3   237  ILE237      0.1692
     87  C         33.2140   41.1590    7.3440 C.2   237  ILE237      0.2592
     88  O         33.8180   41.3530    8.3980 O.2   237  ILE237     -0.2718
     89  CB        34.1880   38.9860    6.5240 C.3   237  ILE237      0.0266
     90  CG1       34.7820   38.2430    5.3060 C.3   237  ILE237      0.0019
     91  CG2       32.9190   38.2900    7.0580 C.3   237  ILE237      0.0020
     92  CD1       33.8660   38.1970    4.1060 C.3   237  ILE237      0.0001
     93  N         31.9420   41.5100    7.1600 N.am  238  LYS238     -0.1966
     94  CA        31.1420   42.0970    8.2280 C.3   238  LYS238      0.1728
     95  C         30.1260   41.0880    8.7600 C.2   238  LYS238      0.2616
     96  O         29.5650   40.2730    7.9980 O.2   238  LYS238     -0.2715
     97  CB        30.4010   43.3400    7.7190 C.3   238  LYS238      0.0311
     98  CG        31.3250   44.3940    7.1930 C.3   238  LYS238      0.0038
     99  CD        30.5780   45.5780    6.6040 C.3   238  LYS238      0.0206
    100  CE        31.6020   46.5990    6.1060 C.3   238  LYS238      0.1093
    101  NZ        31.0600   47.3900    4.9640 N.3   238  LYS238     -0.1314
    102  N         29.8790   41.1420   10.0640 N.am  239  ARG239     -0.1963
    103  CA        28.8600   40.2790   10.6600 C.3   239  ARG239      0.1729
    104  C         27.5140   40.5770    9.9770 C.2   239  ARG239      0.2616
    105  O         27.1660   41.7360    9.7710 O.2   239  ARG239     -0.2715
    106  CB        28.7620   40.4880   12.1750 C.3   239  ARG239      0.0348
    107  CG        27.9290   39.4180   12.8940 C.3   239  ARG239      0.0492
    108  CD        27.4850   39.8520   14.3080 C.3   239  ARG239      0.2205
    109  NE        26.6770   41.0820   14.2770 N.pl3 239  ARG239     -0.0865
    110  CZ        25.3900   41.1450   13.9170 C.cat 239  ARG239      0.5346
    111  NH1       24.7220   40.0450   13.5540 N.pl3 239  ARG239      0.1354
    112  NH2       24.7610   42.3170   13.9210 N.pl3 239  ARG239      0.1354
    113  N         26.7860   39.5270    9.6110 N.am  240  SER240     -0.1950
    114  CA        25.4970   39.6820    8.9450 C.3   240  SER240      0.1924
    115  C         24.5240   38.6870    9.5170 C.2   240  SER240      0.2314
    116  O         24.8540   37.5150    9.6750 O.2   240  SER240     -0.2863
    117  CB        25.6200   39.4390    7.4370 C.3   240  SER240      0.2116
    118  OG        24.3450   39.5620    6.8060 O.3   240  SER240     -0.2180
    119  N         23.9580   35.3700    7.4690 N.3   243  VAL243     -0.1231
    120  CA        24.8470   34.2020    7.6030 C.3   243  VAL243      0.1692
    121  C         24.2340   33.2440    8.6190 C.2   243  VAL243      0.2592
    122  O         24.2650   32.0140    8.4650 O.2   243  VAL243     -0.2718
    123  CB        26.2860   34.6450    7.9770 C.3   243  VAL243      0.0266
    124  CG1       27.1430   33.4280    8.3540 C.3   243  VAL243      0.0020
    125  CG2       26.9210   35.4360    6.8120 C.3   243  VAL243      0.0020
    126  N         23.6060   33.8040    9.6440 N.am  244  SER244     -0.1952
    127  CA        22.8970   32.9860   10.5960 C.3   244  SER244      0.1924
    128  C         21.7330   32.1980    9.9290 C.2   244  SER244      0.2314
    129  O         21.5300   31.0140   10.1960 O.2   244  SER244     -0.2863
    130  CB        22.4160   33.8530   11.7510 C.3   244  SER244      0.2116
    131  OG        21.7900   33.0440   12.7160 O.3   244  SER244     -0.2180
    132  N         23.1770   29.3840    7.8800 N.3   247  SER247     -0.1217
    133  CA        23.7180   28.3510    8.7850 C.3   247  SER247      0.1889
    134  C         22.6290   27.4120    9.2910 C.2   247  SER247      0.2288
    135  O         22.8980   26.2620    9.6100 O.2   247  SER247     -0.2866
    136  CB        24.4570   28.9930    9.9650 C.3   247  SER247      0.2089
    137  OG        25.5730   29.7240    9.4920 O.3   247  SER247     -0.2183
    138  N         29.6020   40.2130   -0.7470 N.3   264  MET264     -0.1230
    139  CA        30.6320   40.4100    0.2780 C.3   264  MET264      0.1702
    140  C         31.6800   39.2740    0.2500 C.2   264  MET264      0.2592
    141  O         32.8920   39.5430    0.2150 O.2   264  MET264     -0.2718
    142  CB        29.9860   40.5250    1.6630 C.3   264  MET264      0.0401
    143  CG        30.9750   40.7700    2.8090 C.3   264  MET264      0.0596
    144  SD        30.1380   40.8550    4.4040 S.3   264  MET264     -0.1393
    145  CE        29.7190   39.1480    4.6730 C.3   264  MET264      0.0692
    146  N         31.2060   38.0260    0.2520 N.am  265  TYR265     -0.1976
    147  CA        32.1020   36.8700    0.1900 C.3   265  TYR265      0.1639
    148  C         32.7850   36.7850   -1.1540 C.2   265  TYR265      0.2290
    149  O         33.9740   36.5130   -1.2190 O.2   265  TYR265     -0.2864
    150  CB        31.3970   35.5650    0.5780 C.3   265  TYR265      0.0560
    151  CG        31.1810   35.4820    2.0620 C.ar  265  TYR265     -0.0198
    152  CD1       29.9490   35.8200    2.6280 C.ar  265  TYR265     -0.0009
    153  CD2       32.2320   35.1120    2.9250 C.ar  265  TYR265     -0.0009
    154  CE1       29.7500   35.7590    4.0000 C.ar  265  TYR265      0.0417
    155  CE2       32.0280   35.0400    4.3000 C.ar  265  TYR265      0.0417
    156  CZ        30.7920   35.3660    4.8280 C.ar  265  TYR265      0.1957
    157  OH        30.5810   35.3300    6.1820 O.3   265  TYR265     -0.2866
@<TRIPOS>BOND
     1   149   148    2
     2   148   147    1
     3   138   139    1
     4   147   146    1
     5   147   150    1
     6   141   140    2
     7   140   146   am
     8   140   139    1
     9   139   142    1
    10   150   151    1
    11   142   143    1
    12   151   152   ar
    13   151   153   ar
    14   152   154   ar
    15   143   144    1
    16   153   155   ar
    17   154   156   ar
    18    92    90    1
    19   155   156   ar
    20   144   145    1
    21   156   157    1
    22    38    37    2
    23   101   100    1
    24    90    89    1
    25    85    86    1
    26    37    36    1
    27   100    99    1
    28    86    89    1
    29    86    87    1
    30    89    91    1
    31    99    98    1
    32    32    31    2
    33   118   117    1
    34   125   123    1
    35    41    40    1
    36    41    42    1
    37    93    87   am
    38    93    94    1
    39    98    97    1
    40    23    22    2
    41    40    39    1
    42    36    39    1
    43    36    35    1
    44    87    88    2
    45   117   114    1
    46   119   120    1
    47   120   123    1
    48   120   121    1
    49    43    42    1
    50    97    94    1
    51    31    35   am
    52    31    30    1
    53   132   133    1
    54   123   124    1
    55    96    95    2
    56    19    18    2
    57    94    95    1
    58    22    21    1
    59    22    29   am
    60   122   121    2
    61   121   126   am
    62    30    29    1
    63    30    33    1
    64    95   102   am
    65   133   134    1
    66   133   136    1
    67   114   115    1
    68   114   113    1
    69    21    24    1
    70    21    20    1
    71   134   135    2
    72    59    60    1
    73    18    20   am
    74    18    17    1
    75   137   136    1
    76   115   116    2
    77   113   104   am
    78    55    54    2
    79   126   127    1
    80   105   104    2
    81    33    34    1
    82    24    25    1
    83   128   129    2
    84   128   127    1
    85   104   103    1
    86    54    53    1
    87   102   103    1
    88    73    74    1
    89    63    65    1
    90    63    60    1
    91    63    64    1
    92    17    16    1
    93    74    77    1
    94    74    75    1
    95    25    26    1
    96    60    61    1
    97   127   130    1
    98   103   106    1
    99    79    81   ar
   100    79    78   ar
   101    12    11    2
   102    81    83   ar
   103    77    78    1
   104    44    45    1
   105    26    27    1
   106    75    76    2
   107    53    52    1
   108    53    56    1
   109    78    80   ar
   110    16    11   am
   111   130   131    1
   112    61    62    2
   113    11    10    1
   114    58    56    1
   115   106   107    1
   116    56    57    1
   117    83    84    1
   118    83    82   ar
   119    47    46    2
   120    48    45    1
   121    48    49    1
   122    27    28    1
   123    45    46    1
   124    80    82   ar
   125    15    13    1
   126   107   108    1
   127    13    10    1
   128    13    14    1
   129    10     9    1
   130   111   110    1
   131    49    51   ar
   132    49    50   ar
   133   110   112    1
   134   110   109    2
   135     9     7   am
   136   109   108    1
   137     7     8    2
   138     7     6    1
   139    66    67    1
   140    66    72    1
   141    67    70    1
   142    67    68    1
   143     6     5    1
   144     5     3   am
   145    72    71    1
   146    70    71    1
   147    68    69    2
   148     3     2    1
   149     3     4    2
   150     2     1    1
