@<TRIPOS>MOLECULE
tmp/2ozgA01.pdb
 74 73 0 0 0
SMALL
GASTEIGER

@<TRIPOS>ATOM
      1  N         19.2070   37.5540   11.7900 N.3    63  GLY63      -0.1225
      2  CA        20.4190   38.2040   11.4060 C.3    63  GLY63       0.1811
      3  C         21.4250   38.1910   12.5620 C.2    63  GLY63       0.2280
      4  O         22.1920   39.1150   12.7210 O.2    63  GLY63      -0.2866
      5  N         19.4620   31.7430   11.0200 N.3   168  HIS168     -0.1241
      6  CA        18.4040   32.7480   10.7770 C.3   168  HIS168      0.1621
      7  C         17.0640   32.0310   10.9500 C.2   168  HIS168      0.2264
      8  O         16.7570   31.0310   10.2400 O.2   168  HIS168     -0.2867
      9  CB        18.6320   33.3100    9.3710 C.3   168  HIS168      0.0745
     10  CG        17.8790   34.5620    9.0190 C.ar  168  HIS168      0.0817
     11  ND1       17.9940   35.7380    9.7260 N.ar  168  HIS168     -0.2268
     12  CD2       17.1230   34.8570    7.9270 C.ar  168  HIS168      0.1154
     13  CE1       17.2960   36.6810    9.1220 C.ar  168  HIS168      0.1986
     14  NE2       16.7560   36.1750    8.0290 N.ar  168  HIS168     -0.2212
     15  N         16.3810   43.3390   14.9180 N.3   288  ARG288     -0.1231
     16  CA        16.9630   42.3830   13.9680 C.3   288  ARG288      0.1694
     17  C         18.3770   42.7500   13.5800 C.2   288  ARG288      0.2593
     18  O         18.7190   43.9280   13.6150 O.2   288  ARG288     -0.2718
     19  CB        16.1260   42.4720   12.6770 C.3   288  ARG288      0.0321
     20  CG        16.2940   41.3770   11.6640 C.3   288  ARG288      0.0489
     21  CD        15.6160   41.8020   10.4250 C.3   288  ARG288      0.2205
     22  NE        15.5530   40.8010    9.3640 N.pl3 288  ARG288     -0.0865
     23  CZ        16.5190   40.5350    8.5070 C.cat 288  ARG288      0.5346
     24  NH1       17.7040   41.1140    8.6200 N.pl3 288  ARG288      0.1354
     25  NH2       16.3170   39.6530    7.5540 N.pl3 288  ARG288      0.1354
     26  N         19.2090   41.7560   13.2420 N.am  289  GLY289     -0.1942
     27  CA        20.5120   42.0170   12.6450 C.3   289  GLY289      0.2014
     28  C         20.3720   42.2140   11.1410 C.2   289  GLY289      0.2639
     29  O         19.4570   41.6520   10.5190 O.2   289  GLY289     -0.2714
     30  N         21.3080   42.9680   10.5500 N.am  290  TYR290     -0.1960
     31  CA        21.3180   43.2270    9.1200 C.3   290  TYR290      0.1756
     32  C         22.6730   42.8690    8.5620 C.2   290  TYR290      0.2461
     33  O         23.6800   42.8960    9.2850 O.2   290  TYR290     -0.2730
     34  CB        20.9770   44.6940    8.8530 C.3   290  TYR290      0.0574
     35  CG        19.5380   44.9870    9.2370 C.ar  290  TYR290     -0.0198
     36  CD1       18.5220   44.7090    8.3730 C.ar  290  TYR290     -0.0009
     37  CD2       19.2050   45.3870   10.5310 C.ar  290  TYR290     -0.0009
     38  CE1       17.2000   44.9020    8.7320 C.ar  290  TYR290      0.0417
     39  CE2       17.8880   45.5490   10.9110 C.ar  290  TYR290      0.0417
     40  CZ        16.8940   45.3270   10.0020 C.ar  290  TYR290      0.1957
     41  OH        15.5700   45.4930   10.3180 O.3   290  TYR290     -0.2866
     42  N         22.7310   42.5640    7.2600 N.am  291  PRO291     -0.2716
     43  CA        24.0420   42.2100    6.7270 C.3   291  PRO291      0.1536
     44  C         25.0080   43.3690    6.7650 C.2   291  PRO291      0.2598
     45  O         24.6150   44.5080    6.5530 O.2   291  PRO291     -0.2715
     46  CB        23.7520   41.8390    5.2590 C.3   291  PRO291      0.0310
     47  CG        22.3010   41.6680    5.1490 C.3   291  PRO291      0.0237
     48  CD        21.7060   42.5590    6.2110 C.3   291  PRO291      0.0939
     49  N         26.2780   43.0840    7.0370 N.am  292  LEU292     -0.1978
     50  CA        27.3050   44.0970    6.9370 C.3   292  LEU292      0.1596
     51  C         27.5710   44.4310    5.4530 C.2   292  LEU292      0.2287
     52  O         27.4730   43.5740    4.5690 O.2   292  LEU292     -0.2864
     53  CB        28.6010   43.6120    7.6050 C.3   292  LEU292      0.0297
     54  CG        28.5760   43.4140    9.1220 C.3   292  LEU292      0.0022
     55  CD1       29.8600   42.7120    9.5720 C.3   292  LEU292      0.0001
     56  CD2       28.4100   44.7940    9.8210 C.3   292  LEU292      0.0001
     57  N         18.3150   40.2890    2.7990 N.3   374  ALA374     -0.1231
     58  CA        18.9500   39.0750    2.2410 C.3   374  ALA374      0.1694
     59  C         19.4840   38.2440    3.3800 C.2   374  ALA374      0.2593
     60  O         19.9470   38.7900    4.3770 O.2   374  ALA374     -0.2718
     61  CB        20.0870   39.4640    1.3110 C.3   374  ALA374      0.0304
     62  N         19.4180   36.9280    3.2370 N.am  375  GLY375     -0.1942
     63  CA        19.8690   36.0670    4.2900 C.3   375  GLY375      0.2014
     64  C         19.5810   34.6090    4.0000 C.2   375  GLY375      0.2638
     65  O         18.8990   34.2740    3.0440 O.2   375  GLY375     -0.2714
     66  N         20.1330   33.7470    4.8200 N.am  376  GLU376     -0.1977
     67  CA        19.9300   32.3320    4.6850 C.3   376  GLU376      0.1602
     68  C         18.4240   32.0630    4.8990 C.2   376  GLU376      0.2287
     69  O         17.7660   32.7450    5.6990 O.2   376  GLU376     -0.2864
     70  CB        20.8230   31.5560    5.6730 C.3   376  GLU376      0.0415
     71  CG        22.3500   31.7070    5.4040 C.3   376  GLU376      0.1163
     72  CD        23.2360   30.7990    6.2810 C.2   376  GLU376      0.3649
     73  OE1       22.6430   30.0200    7.0560 O.co2 376  GLU376     -0.2457
     74  OE2       24.5010   30.8520    6.1740 O.co2 376  GLU376     -0.2457
@<TRIPOS>BOND
     1    61    58    1
     2    58    57    1
     3    58    59    1
     4    65    64    2
     5    62    59   am
     6    62    63    1
     7    59    60    2
     8    64    63    1
     9    64    66   am
    10    52    51    2
    11    67    66    1
    12    67    68    1
    13    67    70    1
    14    68    69    2
    15    47    46    1
    16    47    48    1
    17    46    43    1
    18    71    70    1
    19    71    72    1
    20    51    50    1
    21    74    72   ar
    22    48    42    1
    23    72    73   ar
    24    45    44    2
    25    43    44    1
    26    43    42    1
    27    44    49   am
    28    50    49    1
    29    50    53    1
    30    42    32   am
    31    25    23    1
    32    53    54    1
    33    12    14   ar
    34    12    10   ar
    35    14    13   ar
    36    36    38   ar
    37    36    35   ar
    38    23    24    1
    39    23    22    2
    40    32    31    1
    41    32    33    2
    42    38    40   ar
    43    34    31    1
    44    34    35    1
    45    10     9    1
    46    10    11   ar
    47    31    30    1
    48    13    11   ar
    49    54    55    1
    50    54    56    1
    51    35    37   ar
    52    22    21    1
    53     9     6    1
    54    40    41    1
    55    40    39   ar
    56     8     7    2
    57    21    20    1
    58    29    28    2
    59    37    39   ar
    60    30    28   am
    61     6     7    1
    62     6     5    1
    63    28    27    1
    64     2     1    1
    65     2     3    1
    66    20    19    1
    67     3     4    2
    68    27    26    1
    69    19    16    1
    70    26    17   am
    71    17    18    2
    72    17    16    1
    73    16    15    1
