@<TRIPOS>MOLECULE
tmp/2ozgA03.pdb
 92 93 0 0 0
SMALL
GASTEIGER

@<TRIPOS>ATOM
      1  N         20.7820   14.5710   29.3020 N.3   150  LEU150     -0.1231
      2  CA        20.2530   15.8250   28.7820 C.3   150  LEU150      0.1693
      3  C         19.7290   16.7580   29.8610 C.2   150  LEU150      0.2592
      4  O         20.1340   17.9210   29.9060 O.2   150  LEU150     -0.2718
      5  CB        19.1150   15.5780   27.7800 C.3   150  LEU150      0.0284
      6  CG        18.3600   16.7960   27.2220 C.3   150  LEU150      0.0019
      7  CD1       19.3090   17.7510   26.5150 C.3   150  LEU150      0.0001
      8  CD2       17.1620   16.4060   26.2660 C.3   150  LEU150      0.0001
      9  N         18.8500   16.2360   30.7100 N.am  151  LYS151     -0.1966
     10  CA        18.1040   17.0620   31.6530 C.3   151  LYS151      0.1728
     11  C         18.9890   18.0400   32.3950 C.2   151  LYS151      0.2616
     12  O         19.9490   17.6490   33.0300 O.2   151  LYS151     -0.2715
     13  CB        17.2820   16.2440   32.6460 C.3   151  LYS151      0.0311
     14  CG        16.2540   17.1050   33.4460 C.3   151  LYS151      0.0038
     15  CD        15.3870   16.2710   34.3870 C.3   151  LYS151      0.0206
     16  CE        14.3390   17.0740   35.1550 C.3   151  LYS151      0.1093
     17  NZ        13.8020   16.2690   36.3010 N.3   151  LYS151     -0.1314
     18  N         18.6340   19.3180   32.2360 N.am  152  ASN152     -0.1958
     19  CA        19.3010   20.4880   32.8250 C.3   152  ASN152      0.1819
     20  C         20.8160   20.5570   32.5950 C.2   152  ASN152      0.2621
     21  O         21.5200   21.2460   33.3390 O.2   152  ASN152     -0.2715
     22  CB        18.9530   20.5410   34.3190 C.3   152  ASN152      0.1195
     23  CG        17.4460   20.6390   34.5610 C.2   152  ASN152      0.2630
     24  OD1       16.7190   21.3290   33.8340 O.2   152  ASN152     -0.2716
     25  ND2       16.9780   19.9450   35.5820 N.am  152  ASN152     -0.0877
     26  N         21.3140   19.8720   31.5570 N.am  153  ASN153     -0.1959
     27  CA        22.7400   19.8320   31.2940 C.3   153  ASN153      0.1804
     28  C         23.1090   21.0710   30.5120 C.2   153  ASN153      0.2463
     29  O         22.6730   21.2330   29.3670 O.2   153  ASN153     -0.2730
     30  CB        23.1150   18.5720   30.5300 C.3   153  ASN153      0.1195
     31  CG        24.6070   18.4060   30.3710 C.2   153  ASN153      0.2630
     32  OD1       25.3720   19.3470   30.5410 O.2   153  ASN153     -0.2716
     33  ND2       25.0360   17.1900   30.0490 N.am  153  ASN153     -0.0877
     34  N         23.9520   21.9430   31.1030 N.am  154  PRO154     -0.2727
     35  CA        24.1870   23.2080   30.4310 C.3   154  PRO154      0.1402
     36  C         24.9930   23.0690   29.1600 C.2   154  PRO154      0.2269
     37  O         25.0080   23.9870   28.3600 O.2   154  PRO154     -0.2865
     38  CB        24.9720   24.0330   31.4730 C.3   154  PRO154      0.0296
     39  CG        24.9020   23.2540   32.7300 C.3   154  PRO154      0.0237
     40  CD        24.7460   21.8450   32.3390 C.3   154  PRO154      0.0939
     41  N         24.3920   21.3480   26.6140 N.3   156  PHE156     -0.1227
     42  CA        23.4230   21.3810   25.5270 C.3   156  PHE156      0.1736
     43  C         22.9440   22.7830   25.2640 C.2   156  PHE156      0.2595
     44  O         22.8720   23.1840   24.0940 O.2   156  PHE156     -0.2718
     45  CB        22.2270   20.4570   25.8110 C.3   156  PHE156      0.0547
     46  CG        22.5590   19.0000   25.6660 C.ar  156  PHE156     -0.0202
     47  CD1       22.4520   18.3650   24.4370 C.ar  156  PHE156     -0.0042
     48  CD2       23.0210   18.2630   26.7510 C.ar  156  PHE156     -0.0042
     49  CE1       22.7520   17.0420   24.3000 C.ar  156  PHE156     -0.0003
     50  CE2       23.3380   16.9230   26.5960 C.ar  156  PHE156     -0.0003
     51  CZ        23.2220   16.3260   25.3850 C.ar  156  PHE156     -0.0000
     52  N         22.5560   23.5100   26.3040 N.am  157  HIS157     -0.1975
     53  CA        22.1360   24.9130   26.1080 C.3   157  HIS157      0.1656
     54  C         23.2200   25.7120   25.4380 C.2   157  HIS157      0.2291
     55  O         22.9430   26.4750   24.5800 O.2   157  HIS157     -0.2864
     56  CB        21.7630   25.6460   27.4360 C.3   157  HIS157      0.0771
     57  CG        21.6110   27.1530   27.2810 C.ar  157  HIS157      0.0820
     58  ND1       20.5150   27.7520   26.6780 N.ar  157  HIS157     -0.2267
     59  CD2       22.4440   28.1770   27.6200 C.ar  157  HIS157      0.1154
     60  CE1       20.6740   29.0690   26.6650 C.ar  157  HIS157      0.1986
     61  NE2       21.8420   29.3510   27.2160 N.ar  157  HIS157     -0.2212
     62  N         12.6410   22.7480   25.5970 N.3   178  TRP178     -0.1227
     63  CA        13.5950   21.8180   26.1420 C.3   178  TRP178      0.1737
     64  C         12.8690   20.6720   26.8680 C.2   178  TRP178      0.2595
     65  O         13.2930   19.5370   26.7920 O.2   178  TRP178     -0.2718
     66  CB        14.5330   22.5320   27.1020 C.3   178  TRP178      0.0564
     67  CG        15.5510   23.3680   26.4310 C.ar  178  TRP178      0.0003
     68  CD1       15.6260   24.7180   26.4270 C.ar  178  TRP178      0.0946
     69  CD2       16.6820   22.8960   25.7010 C.ar  178  TRP178      0.0152
     70  NE1       16.7300   25.1260   25.7250 N.ar  178  TRP178     -0.2442
     71  CE2       17.4010   24.0250   25.2740 C.ar  178  TRP178      0.0810
     72  CE3       17.1600   21.6240   25.3680 C.ar  178  TRP178      0.0012
     73  CZ2       18.5910   23.9240   24.5600 C.ar  178  TRP178      0.0191
     74  CZ3       18.3250   21.5240   24.6170 C.ar  178  TRP178      0.0001
     75  CH2       19.0240   22.6730   24.2220 C.ar  178  TRP178      0.0015
     76  N         11.8290   21.0080   27.6360 N.am  179  GLN179     -0.1979
     77  CA        10.9840   20.0120   28.2990 C.3   179  GLN179      0.1601
     78  C         10.4320   18.9770   27.3400 C.2   179  GLN179      0.2287
     79  O         10.4510   17.7680   27.6090 O.2   179  GLN179     -0.2864
     80  CB         9.7930   20.7010   28.9590 C.3   179  GLN179      0.0394
     81  CG        10.1010   21.4350   30.2490 C.3   179  GLN179      0.0908
     82  CD        10.3370   20.5450   31.4060 C.2   179  GLN179      0.2608
     83  OE1       10.0720   19.3440   31.3680 O.2   179  GLN179     -0.2717
     84  NE2       10.8140   21.1370   32.4800 N.am  179  GLN179     -0.0878
     85  N         13.0520   16.5390   26.1630 N.3   182  ASN182     -0.1240
     86  CA        13.4330   15.5720   27.1800 C.3   182  ASN182      0.1653
     87  C         12.2740   14.5910   27.5040 C.2   182  ASN182      0.2266
     88  O         12.4200   13.6680   28.2990 O.2   182  ASN182     -0.2867
     89  CB        13.8880   16.3660   28.3980 C.3   182  ASN182      0.1155
     90  CG        14.6140   15.5390   29.3870 C.2   182  ASN182      0.2627
     91  OD1       15.6230   14.9130   29.0840 O.2   182  ASN182     -0.2716
     92  ND2       14.1100   15.5240   30.6000 N.am  182  ASN182     -0.0877
@<TRIPOS>BOND
     1    44    43    2
     2    75    73   ar
     3    75    74   ar
     4    49    47   ar
     5    49    51   ar
     6    47    46   ar
     7    73    71   ar
     8    55    54    2
     9    74    72   ar
    10    43    42    1
    11    43    52   am
    12    71    69   ar
    13    71    70   ar
    14    72    69   ar
    15    51    50   ar
    16    54    53    1
    17    42    45    1
    18    42    41    1
    19    62    63    1
    20    46    45    1
    21    46    48   ar
    22    69    67   ar
    23    70    68   ar
    24    53    52    1
    25    53    56    1
    26    63    64    1
    27    63    66    1
    28    85    86    1
    29     8     6    1
    30    68    67   ar
    31    67    66    1
    32     7     6    1
    33    50    48   ar
    34    60    58   ar
    35    60    61   ar
    36    58    57   ar
    37    65    64    2
    38    64    76   am
    39    86    87    1
    40    86    89    1
    41    61    59   ar
    42     6     5    1
    43    57    56    1
    44    57    59   ar
    45    78    79    2
    46    78    77    1
    47    87    88    2
    48    76    77    1
    49     5     2    1
    50    77    80    1
    51    37    36    2
    52    89    90    1
    53     2     1    1
    54     2     3    1
    55    80    81    1
    56    91    90    2
    57    36    35    1
    58    29    28    2
    59    90    92   am
    60     3     4    2
    61     3     9   am
    62    33    31   am
    63    81    82    1
    64    31    30    1
    65    31    32    2
    66    35    34    1
    67    35    38    1
    68    28    34   am
    69    28    27    1
    70    30    27    1
    71     9    10    1
    72    34    40    1
    73    27    26    1
    74    83    82    2
    75    82    84   am
    76    38    39    1
    77    26    20   am
    78    10    11    1
    79    10    13    1
    80    18    11   am
    81    18    19    1
    82    40    39    1
    83    11    12    2
    84    20    19    1
    85    20    21    2
    86    13    14    1
    87    19    22    1
    88    14    15    1
    89    24    23    2
    90    22    23    1
    91    15    16    1
    92    23    25   am
    93    16    17    1
