@<TRIPOS>MOLECULE
tmp/2ozgA00.pdb
 171 167 0 0 0
SMALL
GASTEIGER

@<TRIPOS>ATOM
      1  N         -9.2400   18.8650   21.3570 N.3    22  CYS22      -0.1221
      2  CA        -8.7630   19.5430   20.1720 C.3    22  CYS22       0.1808
      3  C         -7.6040   18.8600   19.4730 C.2    22  CYS22       0.2601
      4  O         -7.6290   18.6870   18.2640 O.2    22  CYS22      -0.2717
      5  CB        -8.3690   20.9680   20.5000 C.3    22  CYS22       0.0970
      6  SG        -9.7360   22.0370   20.8500 S.3    22  CYS22      -0.0800
      7  N         -6.5970   18.4690   20.2350 N.am   23  PHE23      -0.1976
      8  CA        -5.4160   17.8670   19.6840 C.3    23  PHE23       0.1639
      9  C         -5.3720   16.3690   19.6690 C.2    23  PHE23       0.2290
     10  O         -4.3540   15.8050   19.3660 O.2    23  PHE23      -0.2864
     11  CB        -4.2260   18.4930   20.4030 C.3    23  PHE23       0.0560
     12  CG        -4.1610   19.9400   20.1340 C.ar   23  PHE23      -0.0200
     13  CD1       -3.8140   20.3780   18.8670 C.ar   23  PHE23      -0.0042
     14  CD2       -4.5710   20.8560   21.0570 C.ar   23  PHE23      -0.0042
     15  CE1       -3.8150   21.6790   18.5670 C.ar   23  PHE23      -0.0003
     16  CE2       -4.5770   22.1800   20.7550 C.ar   23  PHE23      -0.0003
     17  CZ        -4.2080   22.5970   19.5090 C.ar   23  PHE23      -0.0000
     18  N          3.1010   31.1160   19.9930 N.3    71  ILE71      -0.1231
     19  CA         1.7010   30.7700   20.3060 C.3    71  ILE71       0.1692
     20  C          1.5620   29.2570   20.1690 C.2    71  ILE71       0.2592
     21  O          1.8420   28.7200   19.1130 O.2    71  ILE71      -0.2718
     22  CB         0.6960   31.5170   19.4260 C.3    71  ILE71       0.0266
     23  CG1        0.8980   33.0310   19.5050 C.3    71  ILE71       0.0019
     24  CG2       -0.7710   31.1570   19.7910 C.3    71  ILE71       0.0020
     25  CD1        0.6790   33.5670   20.8220 C.3    71  ILE71       0.0001
     26  N          1.1080   28.5770   21.2240 N.am   72  ALA72      -0.1966
     27  CA         0.9210   27.1740   21.1710 C.3    72  ALA72       0.1728
     28  C         -0.5080   26.7430   21.6220 C.2    72  ALA72       0.2616
     29  O         -1.2510   27.4700   22.3160 O.2    72  ALA72      -0.2715
     30  CB         1.9900   26.4920   22.0360 C.3    72  ALA72       0.0334
     31  N         -0.8360   25.5100   21.2660 N.am   73  ALA73      -0.1963
     32  CA        -2.0860   24.8480   21.6790 C.3    73  ALA73       0.1728
     33  C         -3.3650   25.6970   21.5720 C.2    73  ALA73       0.2616
     34  O         -4.1000   25.8410   22.5460 O.2    73  ALA73      -0.2715
     35  CB        -1.9230   24.3040   23.0830 C.3    73  ALA73       0.0334
     36  N         -3.6170   26.2580   20.3950 N.am   74  VAL74      -0.1963
     37  CA        -4.8170   27.0320   20.1970 C.3    74  VAL74       0.1727
     38  C         -5.9560   26.0540   19.9830 C.2    74  VAL74       0.2617
     39  O         -5.9290   25.2630   19.0500 O.2    74  VAL74      -0.2715
     40  CB        -4.7180   27.9280   18.9410 C.3    74  VAL74       0.0290
     41  CG1       -6.0150   28.6710   18.7270 C.3    74  VAL74       0.0023
     42  CG2       -3.5690   28.8900   19.0780 C.3    74  VAL74       0.0023
     43  N         -6.9480   26.1060   20.8490 N.am   75  GLY75      -0.1940
     44  CA        -8.1020   25.2370   20.7170 C.3    75  GLY75       0.2014
     45  C         -9.3870   25.8760   21.1830 C.2    75  GLY75       0.2638
     46  O         -9.4310   26.5260   22.2400 O.2    75  GLY75      -0.2714
     47  N        -10.4360   25.6720   20.3970 N.am   76  ILE76      -0.1977
     48  CA       -11.8140   26.0700   20.7320 C.3    76  ILE76       0.1596
     49  C        -12.6290   24.7920   20.7680 C.2    76  ILE76       0.2287
     50  O        -12.6030   24.0450   19.8320 O.2    76  ILE76      -0.2864
     51  CB       -12.4100   26.9980   19.6520 C.3    76  ILE76       0.0276
     52  CG1      -11.4990   28.1930   19.4190 C.3    76  ILE76       0.0022
     53  CG2      -13.7940   27.4700   20.0150 C.3    76  ILE76       0.0022
     54  CD1      -11.3950   29.1790   20.6480 C.3    76  ILE76       0.0001
     55  N        -17.1940   26.5180   17.9120 N.3    81  ARG81      -0.1231
     56  CA       -16.5540   26.8430   16.6520 C.3    81  ARG81       0.1694
     57  C        -17.4510   27.5260   15.6240 C.2    81  ARG81       0.2593
     58  O        -18.6320   27.4730   15.7240 O.2    81  ARG81      -0.2718
     59  CB       -15.9970   25.5730   16.0690 C.3    81  ARG81       0.0321
     60  CG       -14.8400   25.0630   16.9160 C.3    81  ARG81       0.0489
     61  CD       -14.1510   23.8620   16.2950 C.3    81  ARG81       0.2205
     62  NE       -13.2470   23.2960   17.2770 N.pl3  81  ARG81      -0.0865
     63  CZ       -12.7740   22.0530   17.2840 C.cat  81  ARG81       0.5346
     64  NH1      -13.1030   21.1440   16.3540 N.pl3  81  ARG81       0.1354
     65  NH2      -12.0210   21.7000   18.2940 N.pl3  81  ARG81       0.1354
     66  N        -16.8650   28.1940   14.6420 N.am   82  GLY82      -0.1942
     67  CA       -17.6590   28.8700   13.5940 C.3    82  GLY82       0.2014
     68  C        -18.3820   30.1190   14.0880 C.2    82  GLY82       0.2639
     69  O        -19.2790   30.6140   13.4270 O.2    82  GLY82      -0.2714
     70  N        -17.9670   30.6410   15.2400 N.am   83  ASP83      -0.1957
     71  CA       -18.6260   31.7800   15.8570 C.3    83  ASP83       0.1840
     72  C        -17.6510   32.9230   16.1680 C.2    83  ASP83       0.2623
     73  O        -17.9760   33.8040   16.9070 O.2    83  ASP83      -0.2715
     74  CB       -19.2990   31.2940   17.1440 C.3    83  ASP83       0.1450
     75  CG       -20.4610   32.1780   17.5850 C.2    83  ASP83       0.3671
     76  OD1      -21.1860   32.6790   16.7050 O.co2  83  ASP83      -0.2456
     77  OD2      -20.6610   32.3500   18.8160 O.co2  83  ASP83      -0.2456
     78  N        -16.4510   32.9070   15.6230 N.am   84  GLY84      -0.1940
     79  CA       -15.5120   34.0060   15.8510 C.3    84  GLY84       0.2014
     80  C        -14.7330   33.9290   17.1600 C.2    84  GLY84       0.2639
     81  O        -14.0310   34.8810   17.5480 O.2    84  GLY84      -0.2714
     82  N        -14.8090   32.7850   17.8400 N.am   85  ALA85      -0.1963
     83  CA       -14.1230   32.6780   19.1370 C.3    85  ALA85       0.1728
     84  C        -12.6090   32.6200   18.9320 C.2    85  ALA85       0.2616
     85  O        -11.8840   33.2410   19.6870 O.2    85  ALA85      -0.2715
     86  CB       -14.6070   31.5000   19.9210 C.3    85  ALA85       0.0334
     87  N        -12.1380   31.8770   17.9260 N.am   86  ALA86      -0.1963
     88  CA       -10.6810   31.7860   17.7140 C.3    86  ALA86       0.1728
     89  C        -10.0390   33.1150   17.3020 C.2    86  ALA86       0.2616
     90  O         -8.9570   33.4450   17.7640 O.2    86  ALA86      -0.2715
     91  CB       -10.2820   30.6300   16.7090 C.3    86  ALA86       0.0334
     92  N        -10.6820   33.8690   16.4220 N.am   87  ILE87      -0.1977
     93  CA       -10.0960   35.1180   16.0000 C.3    87  ILE87       0.1596
     94  C        -10.1680   36.0890   17.1890 C.2    87  ILE87       0.2287
     95  O         -9.2160   36.8020   17.4620 O.2    87  ILE87      -0.2864
     96  CB       -10.7400   35.6470   14.6880 C.3    87  ILE87       0.0276
     97  CG1      -10.0430   36.9120   14.2260 C.3    87  ILE87       0.0022
     98  CG2      -12.2220   35.8960   14.8400 C.3    87  ILE87       0.0022
     99  CD1       -8.5740   36.7320   13.9330 C.3    87  ILE87       0.0001
    100  N          4.0240   30.9430   15.2200 N.3   107  LEU107     -0.1231
    101  CA         3.1840   29.7670   15.4330 C.3   107  LEU107      0.1693
    102  C          3.1550   28.8990   14.1870 C.2   107  LEU107      0.2592
    103  O          3.4310   29.3510   13.0700 O.2   107  LEU107     -0.2718
    104  CB         1.7340   30.1720   15.8240 C.3   107  LEU107      0.0284
    105  CG         0.9280   31.1050   14.9070 C.3   107  LEU107      0.0019
    106  CD1        0.3560   30.3910   13.7090 C.3   107  LEU107      0.0001
    107  CD2       -0.2050   31.7090   15.6980 C.3   107  LEU107      0.0001
    108  N          2.7880   27.6390   14.4030 N.am  108  TYR108     -0.1976
    109  CA         2.6200   26.6220   13.3690 C.3   108  TYR108      0.1639
    110  C          1.0960   26.5260   13.1870 C.2   108  TYR108      0.2290
    111  O          0.3530   26.1920   14.1600 O.2   108  TYR108     -0.2864
    112  CB         3.2020   25.2810   13.8250 C.3   108  TYR108      0.0560
    113  CG         4.6970   25.1700   13.7180 C.ar  108  TYR108     -0.0198
    114  CD1        5.2590   24.7030   12.5520 C.ar  108  TYR108     -0.0009
    115  CD2        5.5460   25.5160   14.7780 C.ar  108  TYR108     -0.0009
    116  CE1        6.6270   24.5890   12.4170 C.ar  108  TYR108      0.0417
    117  CE2        6.9330   25.3610   14.6770 C.ar  108  TYR108      0.0417
    118  CZ         7.4540   24.9240   13.4840 C.ar  108  TYR108      0.1957
    119  OH         8.7660   24.7690   13.2550 O.3   108  TYR108     -0.2866
    120  N         -2.7280   25.2940   12.1960 N.3   110  ALA110     -0.1231
    121  CA        -3.4430   24.0600   11.7290 C.3   110  ALA110      0.1694
    122  C         -4.2320   24.4870   10.4970 C.2   110  ALA110      0.2592
    123  O         -4.5200   23.6960    9.6240 O.2   110  ALA110     -0.2718
    124  CB        -4.3650   23.5400   12.8000 C.3   110  ALA110      0.0304
    125  N         -4.5460   25.7790   10.4430 N.am  111  THR111     -0.1953
    126  CA        -5.2690   26.3720    9.3490 C.3   111  THR111      0.1897
    127  C         -4.8040   27.8340    9.2080 C.2   111  THR111      0.2313
    128  O         -4.8460   28.6230   10.1500 O.2   111  THR111     -0.2863
    129  CB        -6.7910   26.2390    9.5290 C.3   111  THR111      0.1794
    130  OG1       -7.4740   27.0680    8.5600 O.3   111  THR111     -0.2208
    131  CG2       -7.1970   26.6250   10.9670 C.3   111  THR111      0.0378
    132  N         -6.0080   30.4210    7.2560 N.3   113  ARG113     -0.1231
    133  CA        -7.0080   31.4830    7.0570 C.3   113  ARG113      0.1694
    134  C         -7.2320   32.2470    8.3480 C.2   113  ARG113      0.2592
    135  O         -7.3030   33.4690    8.3600 O.2   113  ARG113     -0.2718
    136  CB        -8.3210   30.8780    6.5280 C.3   113  ARG113      0.0321
    137  CG        -9.4080   31.9110    6.2370 C.3   113  ARG113      0.0489
    138  CD       -10.7260   31.1440    5.9440 C.3   113  ARG113      0.2205
    139  NE       -11.1510   30.5380    7.2150 N.pl3 113  ARG113     -0.0865
    140  CZ       -12.1520   31.1140    7.9100 C.cat 113  ARG113      0.5346
    141  NH1      -12.7470   32.1630    7.3870 N.pl3 113  ARG113      0.1354
    142  NH2      -12.5000   30.6120    9.0730 N.pl3 113  ARG113      0.1354
    143  N         -7.3750   31.5140    9.4330 N.am  114  LEU114     -0.1966
    144  CA        -7.5600   32.1180   10.7570 C.3   114  LEU114      0.1728
    145  C         -6.4360   33.1010   11.1330 C.2   114  LEU114      0.2616
    146  O         -6.6640   34.2860   11.4600 O.2   114  LEU114     -0.2715
    147  CB        -7.6460   31.0160   11.8050 C.3   114  LEU114      0.0311
    148  CG        -7.4900   31.4500   13.2910 C.3   114  LEU114      0.0022
    149  CD1       -8.6430   32.3340   13.6160 C.3   114  LEU114      0.0001
    150  CD2       -7.4630   30.2470   14.2110 C.3   114  LEU114      0.0001
    151  N         -5.2090   32.6130   11.1060 N.am  115  TYR115     -0.1974
    152  CA        -4.0880   33.4660   11.5030 C.3   115  TYR115      0.1639
    153  C         -3.8000   34.6360   10.5650 C.2   115  TYR115      0.2290
    154  O         -3.3990   35.6620   11.0190 O.2   115  TYR115     -0.2864
    155  CB        -2.8930   32.6210   11.7920 C.3   115  TYR115      0.0560
    156  CG        -3.2080   31.5970   12.8550 C.ar  115  TYR115     -0.0198
    157  CD1       -3.3130   31.9660   14.1710 C.ar  115  TYR115     -0.0009
    158  CD2       -3.3810   30.2490   12.5240 C.ar  115  TYR115     -0.0009
    159  CE1       -3.5760   31.0250   15.1600 C.ar  115  TYR115      0.0417
    160  CE2       -3.6660   29.3020   13.4850 C.ar  115  TYR115      0.0417
    161  CZ        -3.7610   29.6920   14.7970 C.ar  115  TYR115      0.1957
    162  OH        -4.0100   28.8040   15.7660 O.3   115  TYR115     -0.2866
    163  N         -6.0950   36.2930    9.1210 N.3   117  LYS117     -0.1245
    164  CA        -7.0790   37.3130    9.5340 C.3   117  LYS117      0.1561
    165  C         -6.4680   38.1790   10.6200 C.2   117  LYS117      0.2260
    166  O         -6.8130   39.3110   10.7240 O.2   117  LYS117     -0.2867
    167  CB        -8.4060   36.7380   10.0800 C.3   117  LYS117      0.0271
    168  CG        -9.3810   36.2560    9.0450 C.3   117  LYS117      0.0035
    169  CD       -10.7830   35.9790    9.6290 C.3   117  LYS117      0.0206
    170  CE       -11.6530   37.2680    9.8440 C.3   117  LYS117      0.1093
    171  NZ       -12.1640   37.9500    8.5740 N.3   117  LYS117     -0.1314
@<TRIPOS>BOND
     1   138   137    1
     2   138   139    1
     3   137   136    1
     4   136   133    1
     5   133   132    1
     6   133   134    1
     7   139   140    2
     8   141   140    1
     9   140   142    1
    10   134   135    2
    11   134   143   am
    12   130   129    1
    13   171   170    1
    14   168   169    1
    15   168   167    1
    16   163   164    1
    17   127   126    1
    18   127   128    2
    19   126   129    1
    20   126   125    1
    21   143   144    1
    22   129   131    1
    23   164   167    1
    24   164   165    1
    25   123   122    2
    26   169   170    1
    27   125   122   am
    28   122   121    1
    29   153   154    2
    30   153   152    1
    31   165   166    2
    32   144   145    1
    33   144   147    1
    34   151   145   am
    35   151   152    1
    36   145   146    2
    37   152   155    1
    38   121   120    1
    39   121   124    1
    40   155   156    1
    41   147   148    1
    42   116   114   ar
    43   116   118   ar
    44   158   156   ar
    45   158   160   ar
    46   114   113   ar
    47   156   157   ar
    48   103   102    2
    49   110   109    1
    50   110   111    2
    51   119   118    1
    52   148   149    1
    53   148   150    1
    54   109   112    1
    55   109   108    1
    56    69    68    2
    57   118   117   ar
    58   160   161   ar
    59    67    68    1
    60    67    66    1
    61   106   105    1
    62   113   112    1
    63   113   115   ar
    64    99    97    1
    65    68    70   am
    66   157   159   ar
    67   102   108   am
    68   102   101    1
    69    97    96    1
    70    66    57   am
    71   117   115   ar
    72    96    98    1
    73    96    93    1
    74   161   159   ar
    75   161   162    1
    76   105   107    1
    77   105   104    1
    78   100   101    1
    79    70    71    1
    80   101   104    1
    81    78    79    1
    82    78    72   am
    83    57    58    2
    84    57    56    1
    85    79    80    1
    86    71    72    1
    87    71    74    1
    88    93    92    1
    89    93    94    1
    90    59    56    1
    91    59    60    1
    92    72    73    2
    93    61    60    1
    94    61    62    1
    95    64    63    1
    96    92    89   am
    97    56    55    1
    98    76    75   ar
    99    91    88    1
   100    74    75    1
   101    80    81    2
   102    80    82   am
   103    94    95    2
   104    62    63    2
   105    63    65    1
   106    89    88    1
   107    89    90    2
   108    75    77   ar
   109    88    87    1
   110    82    83    1
   111    87    84   am
   112     4     3    2
   113    15    13   ar
   114    15    17   ar
   115    41    40    1
   116    13    12   ar
   117    84    83    1
   118    84    85    2
   119    40    42    1
   120    40    37    1
   121    39    38    2
   122    21    20    2
   123    83    86    1
   124    10     9    2
   125    52    51    1
   126    52    54    1
   127    22    23    1
   128    22    24    1
   129    22    19    1
   130     3     2    1
   131     3     7   am
   132    23    25    1
   133    17    16   ar
   134    51    53    1
   135    51    48    1
   136     9     8    1
   137     8     7    1
   138     8    11    1
   139    50    49    2
   140    38    37    1
   141    38    43   am
   142    18    19    1
   143    12    11    1
   144    12    14   ar
   145    20    19    1
   146    20    26   am
   147     2     5    1
   148     2     1    1
   149    37    36    1
   150    36    33   am
   151    47    48    1
   152    47    45   am
   153     5     6    1
   154    44    43    1
   155    44    45    1
   156    48    49    1
   157    16    14   ar
   158    27    26    1
   159    27    28    1
   160    27    30    1
   161    45    46    2
   162    31    28   am
   163    31    32    1
   164    33    32    1
   165    33    34    2
   166    28    29    2
   167    32    35    1
