@<TRIPOS>MOLECULE
tmp/2ozmC00.pdb
 140 134 0 0 0
SMALL
GASTEIGER

@<TRIPOS>ATOM
      1  N         -2.1550   42.6190    6.8360 N.3   411  ASP411     -0.1225
      2  CA        -1.6760   43.5620    7.8510 C.3   411  ASP411      0.1805
      3  C         -0.2390   44.0380    7.5780 C.2   411  ASP411      0.2598
      4  O          0.6490   43.2320    7.3010 O.2   411  ASP411     -0.2718
      5  CB        -1.7970   42.9350    9.2540 C.3   411  ASP411      0.1424
      6  CG        -1.7450   43.9680   10.3790 C.2   411  ASP411      0.3668
      7  OD1       -0.6770   44.5860   10.5820 O.co2 411  ASP411     -0.2456
      8  OD2       -2.7690   44.1440   11.0790 O.co2 411  ASP411     -0.2456
      9  N         -0.0270   45.3500    7.6650 N.am  412  LEU412     -0.1966
     10  CA         1.2910   45.9550    7.4350 C.3   412  LEU412      0.1728
     11  C          2.3010   45.6410    8.5380 C.2   412  LEU412      0.2617
     12  O          1.9960   45.7650    9.7300 O.2   412  LEU412     -0.2715
     13  CB         1.1550   47.4630    7.2430 C.3   412  LEU412      0.0311
     14  CG         0.7290   47.8660    5.8300 C.3   412  LEU412      0.0022
     15  CD1       -0.0830   49.1560    5.8160 C.3   412  LEU412      0.0001
     16  CD2        1.9460   47.9550    4.9120 C.3   412  LEU412      0.0001
     17  N          3.5010   45.2340    8.1260 N.am  413  THR413     -0.1937
     18  CA         4.5480   44.7800    9.0480 C.3   413  THR413      0.2028
     19  C          5.1530   45.9600    9.7940 C.2   413  THR413      0.2643
     20  O          5.8060   46.8030    9.1860 O.2   413  THR413     -0.2714
     21  CB         5.6840   44.0590    8.2920 C.3   413  THR413      0.1808
     22  OG1        5.1290   43.2530    7.2490 O.3   413  THR413     -0.2208
     23  CG2        6.5020   43.1810    9.2360 C.3   413  THR413      0.0379
     24  N          4.9480   46.0120   11.1060 N.am  414  SER414     -0.1935
     25  CA         5.3890   47.1570   11.9020 C.3   414  SER414      0.2055
     26  C          5.1300   48.4620   11.1420 C.2   414  SER414      0.2643
     27  O          6.0650   49.1170   10.6710 O.2   414  SER414     -0.2714
     28  CB         6.8720   47.0240   12.2720 C.3   414  SER414      0.2130
     29  OG         7.1450   45.7600   12.8530 O.3   414  SER414     -0.2179
     30  N          3.8580   48.8230   11.0040 N.am  415  LEU415     -0.1963
     31  CA         3.5040   49.9730   10.1960 C.3   415  LEU415      0.1728
     32  C          4.2350   51.2130   10.6600 C.2   415  LEU415      0.2616
     33  O          4.9420   51.8310    9.8740 O.2   415  LEU415     -0.2715
     34  CB         1.9990   50.2270   10.1740 C.3   415  LEU415      0.0311
     35  CG         1.6280   51.5020    9.4090 C.3   415  LEU415      0.0022
     36  CD1        2.0620   51.4370    7.9420 C.3   415  LEU415      0.0001
     37  CD2        0.1470   51.8180    9.5190 C.3   415  LEU415      0.0001
     38  N          4.0850   51.5670   11.9300 N.am  416  TYR416     -0.1974
     39  CA         4.6510   52.8240   12.4090 C.3   416  TYR416      0.1639
     40  C          6.1810   52.9130   12.3080 C.2   416  TYR416      0.2290
     41  O          6.6970   53.9250   11.8110 O.2   416  TYR416     -0.2864
     42  CB         4.1270   53.1960   13.8000 C.3   416  TYR416      0.0560
     43  CG         2.7220   53.7830   13.7850 C.ar  416  TYR416     -0.0198
     44  CD1        1.8570   53.5570   12.7100 C.ar  416  TYR416     -0.0009
     45  CD2        2.2480   54.5330   14.8620 C.ar  416  TYR416     -0.0009
     46  CE1        0.5690   54.0780   12.6990 C.ar  416  TYR416      0.0417
     47  CE2        0.9570   55.0550   14.8660 C.ar  416  TYR416      0.0417
     48  CZ         0.1220   54.8270   13.7780 C.ar  416  TYR416      0.1957
     49  OH        -1.1580   55.3450   13.7670 O.3   416  TYR416     -0.2866
     50  N         13.4670   41.6760   16.0180 N.3   482  ARG482     -0.1245
     51  CA        12.0700   41.2660   16.1180 C.3   482  ARG482      0.1563
     52  C         11.6590   40.3640   14.9540 C.2   482  ARG482      0.2260
     53  O         10.9370   39.3870   15.1470 O.2   482  ARG482     -0.2867
     54  CB        11.1660   42.5010   16.1980 C.3   482  ARG482      0.0307
     55  CG         9.7130   42.2220   16.5640 C.3   482  ARG482      0.0489
     56  CD         8.7850   42.3060   15.3620 C.3   482  ARG482      0.2205
     57  NE         7.4570   41.7870   15.6830 N.pl3 482  ARG482     -0.0865
     58  CZ         6.3740   41.9820   14.9410 C.cat 482  ARG482      0.5346
     59  NH1        6.4350   42.7000   13.8290 N.pl3 482  ARG482      0.1354
     60  NH2        5.2230   41.4650   15.3220 N.pl3 482  ARG482      0.1354
     61  N         10.3720   36.3850   15.3450 N.3   486  LYS486     -0.1245
     62  CA         9.0330   36.1050   14.8280 C.3   486  LYS486      0.1561
     63  C          9.0730   34.8780   13.9180 C.2   486  LYS486      0.2260
     64  O          8.1210   34.0920   13.8730 O.2   486  LYS486     -0.2867
     65  CB         8.4410   37.3090   14.0850 C.3   486  LYS486      0.0271
     66  CG         6.9490   37.1630   13.8320 C.3   486  LYS486      0.0035
     67  CD         6.3940   38.1950   12.8740 C.3   486  LYS486      0.0206
     68  CE         4.9130   37.9270   12.6250 C.3   486  LYS486      0.1093
     69  NZ         4.1810   39.1450   12.1960 N.3   486  LYS486     -0.1314
     70  N          8.6090   44.3470   19.5040 N.3   560  LYS560     -0.1231
     71  CA         7.5280   45.0790   18.8440 C.3   560  LYS560      0.1693
     72  C          6.9620   46.2110   19.7150 C.2   560  LYS560      0.2591
     73  O          6.6140   47.2680   19.2000 O.2   560  LYS560     -0.2718
     74  CB         6.4150   44.1210   18.4280 C.3   560  LYS560      0.0285
     75  CG         5.2020   44.8010   17.8430 C.3   560  LYS560      0.0035
     76  CD         4.0760   43.8220   17.6480 C.3   560  LYS560      0.0206
     77  CE         2.8890   44.5340   17.0780 C.3   560  LYS560      0.1093
     78  NZ         1.7680   43.6070   16.8680 N.3   560  LYS560     -0.1314
     79  N          6.8730   45.9860   21.0220 N.am  561  LEU561     -0.1980
     80  CA         6.4070   47.0170   21.9380 C.3   561  LEU561      0.1596
     81  C          7.3890   48.1790   21.9620 C.2   561  LEU561      0.2287
     82  O          6.9990   49.3440   21.8320 O.2   561  LEU561     -0.2864
     83  CB         6.2190   46.4550   23.3480 C.3   561  LEU561      0.0297
     84  CG         5.4330   47.3190   24.3450 C.3   561  LEU561      0.0022
     85  CD1        3.9680   47.4550   23.9480 C.3   561  LEU561      0.0001
     86  CD2        5.5310   46.7460   25.7520 C.3   561  LEU561      0.0001
     87  N          7.3270   50.3310   18.7020 N.3   564  ASN564     -0.1225
     88  CA         6.1070   51.1290   18.6880 C.3   564  ASN564      0.1785
     89  C          6.1790   52.2320   19.7450 C.2   564  ASN564      0.2597
     90  O          5.6430   53.3300   19.5540 O.2   564  ASN564     -0.2718
     91  CB         4.8700   50.2560   18.8950 C.3   564  ASN564      0.1169
     92  CG         4.4510   49.5000   17.6270 C.2   564  ASN564      0.2627
     93  OD1        3.5080   48.7000   17.6490 O.2   564  ASN564     -0.2716
     94  ND2        5.1560   49.7450   16.5240 N.am  564  ASN564     -0.0877
     95  N          6.8690   51.9350   20.8470 N.am  565  SER565     -0.1952
     96  CA         7.0750   52.8850   21.9410 C.3   565  SER565      0.1924
     97  C          8.0100   54.0470   21.5980 C.2   565  SER565      0.2314
     98  O          8.0680   55.0410   22.3390 O.2   565  SER565     -0.2863
     99  CB         7.6050   52.1560   23.1660 C.3   565  SER565      0.2116
    100  OG         6.5930   51.3450   23.7230 O.3   565  SER565     -0.2180
    101  N          7.7900   55.6740   18.5840 N.3   567  TYR567     -0.1227
    102  CA         6.7550   56.5820   18.1100 C.3   567  TYR567      0.1736
    103  C          6.0020   57.1670   19.3070 C.2   567  TYR567      0.2596
    104  O          5.6750   58.3500   19.3290 O.2   567  TYR567     -0.2718
    105  CB         5.7700   55.8770   17.1780 C.3   567  TYR567      0.0548
    106  CG         4.3760   56.4530   17.2950 C.ar  567  TYR567     -0.0200
    107  CD1        4.0530   57.6710   16.6920 C.ar  567  TYR567     -0.0009
    108  CD2        3.3880   55.8030   18.0480 C.ar  567  TYR567     -0.0009
    109  CE1        2.7920   58.2140   16.8230 C.ar  567  TYR567      0.0417
    110  CE2        2.1180   56.3440   18.1770 C.ar  567  TYR567      0.0417
    111  CZ         1.8310   57.5480   17.5630 C.ar  567  TYR567      0.1957
    112  OH         0.5810   58.1000   17.6790 O.3   567  TYR567     -0.2866
    113  N          5.7240   56.3210   20.2930 N.am  568  GLY568     -0.1957
    114  CA         4.9790   56.7300   21.4760 C.3   568  GLY568      0.1869
    115  C          5.6930   57.8080   22.2670 C.2   568  GLY568      0.2309
    116  O          5.0940   58.8150   22.6420 O.2   568  GLY568     -0.2863
    117  N         -6.3410   50.7650   11.4660 N.3   622  THR622     -0.1203
    118  CA        -4.9710   51.3030   11.4620 C.3   622  THR622      0.1994
    119  C         -4.1480   50.9060   10.2270 C.2   622  THR622      0.2617
    120  O         -3.7620   51.7730    9.4340 O.2   622  THR622     -0.2717
    121  CB        -4.2010   50.9540   12.7630 C.3   622  THR622      0.1784
    122  OG1       -4.9900   51.3190   13.8990 O.3   622  THR622     -0.2211
    123  CG2       -2.8740   51.6780   12.8240 C.3   622  THR622      0.0376
    124  N         -3.8910   49.6050   10.0720 N.am  623  ASP623     -0.1973
    125  CA        -2.9910   49.0930    9.0370 C.3   623  ASP623      0.1709
    126  C         -3.4600   47.7760    8.4330 C.2   623  ASP623      0.2293
    127  O         -2.6860   47.0790    7.7650 O.2   623  ASP623     -0.2864
    128  CB        -1.6090   48.8700    9.6370 C.3   623  ASP623      0.1436
    129  CG        -1.5750   47.7090   10.6060 C.2   623  ASP623      0.3671
    130  OD1       -2.6320   47.3440   11.1610 O.co2 623  ASP623     -0.2456
    131  OD2       -0.4770   47.1620   10.8150 O.co2 623  ASP623     -0.2456
    132  N         -2.6700   37.5750    6.4420 N.3   686  GLU686     -0.1245
    133  CA        -2.9270   37.1610    7.8030 C.3   686  GLU686      0.1567
    134  C         -3.8240   35.9370    7.8370 C.2   686  GLU686      0.2260
    135  O         -3.3410   34.8050    7.8630 O.2   686  GLU686     -0.2867
    136  CB        -3.5670   38.3160    8.5760 C.3   686  GLU686      0.0388
    137  CG        -3.1200   38.4220   10.0180 C.3   686  GLU686      0.1160
    138  CD        -1.7980   39.1670   10.1820 C.2   686  GLU686      0.3649
    139  OE1       -0.8190   38.8440    9.4610 O.co2 686  GLU686     -0.2457
    140  OE2       -1.7410   40.0770   11.0470 O.co2 686  GLU686     -0.2457
@<TRIPOS>BOND
     1    16    14    1
     2    15    14    1
     3    14    13    1
     4   132   133    1
     5     1     2    1
     6    13    10    1
     7    22    21    1
     8     4     3    2
     9    10     9    1
    10    10    11    1
    11     3     9   am
    12     3     2    1
    13   127   126    2
    14   133   134    1
    15   133   136    1
    16   134   135    2
    17     2     5    1
    18    36    35    1
    19    17    11   am
    20    17    18    1
    21    21    18    1
    22    21    23    1
    23   126   125    1
    24    11    12    2
    25   136   137    1
    26   125   128    1
    27   125   124    1
    28    18    19    1
    29    20    19    2
    30     5     6    1
    31    35    37    1
    32    35    34    1
    33   120   119    2
    34   139   138   ar
    35   128   129    1
    36    19    24   am
    37    33    32    2
    38   137   138    1
    39   124   119   am
    40    34    31    1
    41   138   140   ar
    42    31    32    1
    43    31    30    1
    44   119   118    1
    45     6     7   ar
    46     6     8   ar
    47   129   131   ar
    48   129   130   ar
    49    32    38   am
    50    27    26    2
    51    30    26   am
    52    24    25    1
    53    26    25    1
    54   118   117    1
    55   118   121    1
    56    41    40    2
    57    25    28    1
    58    38    39    1
    59    69    68    1
    60    28    29    1
    61    40    39    1
    62    39    42    1
    63    68    67    1
    64    46    44   ar
    65    46    48   ar
    66    44    43   ar
    67   121   123    1
    68   121   122    1
    69    67    66    1
    70    49    48    1
    71    48    47   ar
    72    43    42    1
    73    43    45   ar
    74    59    58    1
    75    66    65    1
    76    64    63    2
    77    63    62    1
    78    65    62    1
    79    62    61    1
    80    45    47   ar
    81    58    60    1
    82    58    57    2
    83    52    53    2
    84    52    51    1
    85    56    57    1
    86    56    55    1
    87    50    51    1
    88    51    54    1
    89    54    55    1
    90    94    92   am
    91   107   109   ar
    92   107   106   ar
    93   109   111   ar
    94    78    77    1
    95    77    76    1
    96   105   106    1
    97   105   102    1
    98   106   108   ar
    99   111   112    1
   100   111   110   ar
   101    92    93    2
   102    92    91    1
   103    76    75    1
   104    75    74    1
   105   108   110   ar
   106   102   101    1
   107   102   103    1
   108    74    71    1
   109    88    87    1
   110    88    91    1
   111    88    89    1
   112    71    70    1
   113    71    72    1
   114    73    72    2
   115   103   104    2
   116   103   113   am
   117    90    89    2
   118    72    79   am
   119    89    95   am
   120   113   114    1
   121    95    96    1
   122    79    80    1
   123   114   115    1
   124    97    96    1
   125    97    98    2
   126    82    81    2
   127    80    81    1
   128    80    83    1
   129    96    99    1
   130   115   116    2
   131    99   100    1
   132    83    84    1
   133    85    84    1
   134    84    86    1
