@<TRIPOS>MOLECULE
tmp/2ozrB00.pdb
 216 217 0 0 0
SMALL
GASTEIGER

@<TRIPOS>ATOM
      1  N         10.6940  -15.0290    7.4850 N.3    37  LYS37      -0.1245
      2  CA         9.7030  -14.0460    7.0530 C.3    37  LYS37       0.1561
      3  C         10.1690  -13.3360    5.7990 C.2    37  LYS37       0.2260
      4  O          9.3710  -13.1040    4.8940 O.2    37  LYS37      -0.2867
      5  CB         9.3940  -13.0290    8.1550 C.3    37  LYS37       0.0271
      6  CG         8.1860  -12.1810    7.8330 C.3    37  LYS37       0.0035
      7  CD         7.7110  -11.3450    9.0050 C.3    37  LYS37       0.0206
      8  CE         6.3770  -10.6680    8.6660 C.3    37  LYS37       0.1093
      9  NZ         5.8290   -9.8840    9.8210 N.3    37  LYS37      -0.1314
     10  N         24.7050   -1.1940    6.0700 N.3    82  LEU82      -0.1245
     11  CA        24.0310   -2.1140    6.9980 C.3    82  LEU82       0.1561
     12  C         24.2620   -3.5800    6.6310 C.2    82  LEU82       0.2260
     13  O         24.3590   -4.4350    7.5040 O.2    82  LEU82      -0.2867
     14  CB        22.5210   -1.8190    7.0630 C.3    82  LEU82       0.0270
     15  CG        22.0510   -0.3560    7.1750 C.3    82  LEU82       0.0019
     16  CD1       20.5410   -0.2500    7.2590 C.3    82  LEU82       0.0001
     17  CD2       22.6900    0.3690    8.3570 C.3    82  LEU82       0.0001
     18  N         14.1290   -7.0120   16.5190 N.3   106  SER106     -0.1202
     19  CA        12.8230   -7.4920   16.1030 C.3   106  SER106      0.2020
     20  C         11.7740   -6.4330   16.4240 C.2   106  SER106      0.2619
     21  O         10.6790   -6.7650   16.8750 O.2   106  SER106     -0.2717
     22  CB        12.4810   -8.7900   16.8260 C.3   106  SER106      0.2103
     23  OG        12.6040   -9.8960   15.9610 O.3   106  SER106     -0.2182
     24  N         12.1160   -5.1660   16.1940 N.am  107  SER107     -0.1951
     25  CA        11.2390   -4.0330   16.5100 C.3   107  SER107      0.1924
     26  C         11.6600   -2.8190   15.6940 C.2   107  SER107      0.2314
     27  O         12.2720   -2.9640   14.6340 O.2   107  SER107     -0.2863
     28  CB        11.3290   -3.7020   17.9990 C.3   107  SER107      0.2116
     29  OG        12.5820   -3.1000   18.3150 O.3   107  SER107     -0.2180
     30  N         15.8240   -3.2000   12.0010 N.3   112  ASN112     -0.1240
     31  CA        14.9980   -4.4110   11.9720 C.3   112  ASN112      0.1653
     32  C         15.6070   -5.4490   11.0150 C.2   112  ASN112      0.2266
     33  O         15.7510   -5.1970    9.8230 O.2   112  ASN112     -0.2867
     34  CB        13.5530   -4.0220   11.6090 C.3   112  ASN112      0.1155
     35  CG        12.6100   -5.1960   11.5740 C.2   112  ASN112      0.2627
     36  OD1       12.5040   -5.8740   10.5570 O.2   112  ASN112     -0.2716
     37  ND2       11.9050   -5.4390   12.6770 N.am  112  ASN112     -0.0877
     38  N         14.4640   -8.5080    9.9000 N.3   114  PHE114     -0.1227
     39  CA        13.5430   -8.9430    8.8280 C.3   114  PHE114      0.1736
     40  C         13.4890   -7.9350    7.6590 C.2   114  PHE114      0.2595
     41  O         13.5200   -8.3150    6.4750 O.2   114  PHE114     -0.2718
     42  CB        12.1220   -9.2140    9.3520 C.3   114  PHE114      0.0547
     43  CG        11.0430   -8.9580    8.3190 C.ar  114  PHE114     -0.0202
     44  CD1       10.2340   -7.8220    8.4000 C.ar  114  PHE114     -0.0042
     45  CD2       10.8820   -9.8150    7.2330 C.ar  114  PHE114     -0.0042
     46  CE1        9.2640   -7.5710    7.4370 C.ar  114  PHE114     -0.0003
     47  CE2        9.9240   -9.5590    6.2550 C.ar  114  PHE114     -0.0003
     48  CZ         9.1150   -8.4450    6.3600 C.ar  114  PHE114     -0.0000
     49  N         13.4000   -6.6540    7.9940 N.am  115  LEU115     -0.1966
     50  CA        13.2750   -5.6220    6.9710 C.3   115  LEU115      0.1728
     51  C         14.5060   -5.5080    6.0760 C.2   115  LEU115      0.2616
     52  O         14.3730   -5.4290    4.8530 O.2   115  LEU115     -0.2715
     53  CB        12.9610   -4.2790    7.6130 C.3   115  LEU115      0.0311
     54  CG        12.1180   -3.3400    6.7860 C.3   115  LEU115      0.0022
     55  CD1       10.8780   -4.0770    6.2530 C.3   115  LEU115      0.0001
     56  CD2       11.7370   -2.1450    7.6580 C.3   115  LEU115      0.0001
     57  N         15.6940   -5.5150    6.6840 N.am  116  VAL116     -0.1977
     58  CA        16.9430   -5.4180    5.9420 C.3   116  VAL116      0.1596
     59  C         17.1940   -6.7060    5.1540 C.2   116  VAL116      0.2287
     60  O         17.6110   -6.6590    4.0000 O.2   116  VAL116     -0.2864
     61  CB        18.1350   -5.0560    6.8700 C.3   116  VAL116      0.0276
     62  CG1       19.4310   -4.9280    6.0660 C.3   116  VAL116      0.0022
     63  CG2       17.8520   -3.7490    7.5860 C.3   116  VAL116      0.0022
     64  N         14.8780   -6.8360    1.9560 N.3   119  HIS119     -0.1241
     65  CA        15.5220   -5.9690    0.9660 C.3   119  HIS119      0.1621
     66  C         16.7290   -6.6920    0.3650 C.2   119  HIS119      0.2264
     67  O         16.8460   -6.8030   -0.8640 O.2   119  HIS119     -0.2867
     68  CB        15.9370   -4.6460    1.6160 C.3   119  HIS119      0.0745
     69  CG        16.7290   -3.7360    0.7210 C.ar  119  HIS119      0.0817
     70  ND1       16.1690   -2.6600    0.0690 N.ar  119  HIS119     -0.2268
     71  CD2       18.0500   -3.7150    0.4100 C.ar  119  HIS119      0.1154
     72  CE1       17.1060   -2.0240   -0.6150 C.ar  119  HIS119      0.1986
     73  NE2       18.2540   -2.6490   -0.4340 N.ar  119  HIS119     -0.2212
     74  N         10.1510    5.5270   -3.9220 N.3   133  PRO133     -0.2102
     75  CA        10.4770    5.7710   -2.5060 C.3   133  PRO133      0.1504
     76  C          9.6850    4.9060   -1.5280 C.2   133  PRO133      0.2576
     77  O         10.0960    4.7720   -0.3750 O.2   133  PRO133     -0.2718
     78  CB        10.1120    7.2460   -2.3180 C.3   133  PRO133      0.0282
     79  CG         9.0070    7.4600   -3.3300 C.3   133  PRO133      0.0208
     80  CD         9.5010    6.7040   -4.5310 C.3   133  PRO133      0.0893
     81  N          8.5760    4.3240   -1.9940 N.am  134  GLY134     -0.1943
     82  CA         7.7190    3.4480   -1.1710 C.3   134  GLY134      0.2014
     83  C          8.0080    1.9630   -1.3400 C.2   134  GLY134      0.2639
     84  O          7.3610    1.1260   -0.7050 O.2   134  GLY134     -0.2714
     85  N          8.9750    1.6460   -2.2000 N.am  135  ALA135     -0.1963
     86  CA         9.3860    0.2740   -2.4920 C.3   135  ALA135      0.1728
     87  C         10.3360   -0.3210   -1.4400 C.2   135  ALA135      0.2616
     88  O         11.1430    0.3840   -0.8380 O.2   135  ALA135     -0.2715
     89  CB        10.0320    0.2160   -3.8760 C.3   135  ALA135      0.0334
     90  N         10.2420   -1.6320   -1.2260 N.am  136  LEU136     -0.1977
     91  CA        11.2290   -2.3430   -0.4080 C.3   136  LEU136      0.1596
     92  C         12.6220   -2.1800   -1.0090 C.2   136  LEU136      0.2287
     93  O         13.5840   -1.9820   -0.2810 O.2   136  LEU136     -0.2864
     94  CB        10.8720   -3.8240   -0.2550 C.3   136  LEU136      0.0297
     95  CG        11.8000   -4.7160    0.5830 C.3   136  LEU136      0.0022
     96  CD1       11.8780   -4.2760    2.0490 C.3   136  LEU136      0.0001
     97  CD2       11.3610   -6.1560    0.5010 C.3   136  LEU136      0.0001
     98  N         13.9000    0.3070   -2.5750 N.3   138  PHE138     -0.1228
     99  CA        14.4580    1.6610   -2.4390 C.3   138  PHE138      0.1721
    100  C         15.7540    1.6280   -1.5980 C.2   138  PHE138      0.2437
    101  O         15.7890    0.9690   -0.5600 O.2   138  PHE138     -0.2733
    102  CB        13.4050    2.5940   -1.8170 C.3   138  PHE138      0.0547
    103  CG        13.7570    4.0550   -1.8820 C.ar  138  PHE138     -0.0202
    104  CD1       13.8480    4.7170   -3.1110 C.ar  138  PHE138     -0.0042
    105  CD2       13.9970    4.7720   -0.7180 C.ar  138  PHE138     -0.0042
    106  CE1       14.1800    6.0720   -3.1700 C.ar  138  PHE138     -0.0003
    107  CE2       14.3280    6.1410   -0.7640 C.ar  138  PHE138     -0.0003
    108  CZ        14.4220    6.7850   -1.9860 C.ar  138  PHE138     -0.0000
    109  N         16.8230    2.3400   -2.0290 N.am  139  PRO139     -0.2718
    110  CA        18.1510    2.1560   -1.4110 C.3   139  PRO139      0.1535
    111  C         18.2510    2.4210    0.0910 C.2   139  PRO139      0.2598
    112  O         19.1380    1.8650    0.7430 O.2   139  PRO139     -0.2715
    113  CB        19.0330    3.1750   -2.1550 C.3   139  PRO139      0.0310
    114  CG        18.3230    3.4380   -3.4320 C.3   139  PRO139      0.0237
    115  CD        16.8680    3.3660   -3.0850 C.3   139  PRO139      0.0939
    116  N         17.3570    3.2630    0.6160 N.am  140  ILE140     -0.1964
    117  CA        17.4770    3.8350    1.9610 C.3   140  ILE140      0.1727
    118  C         16.4820    3.2320    2.9430 C.2   140  ILE140      0.2616
    119  O         15.2890    3.1940    2.6690 O.2   140  ILE140     -0.2715
    120  CB        17.2650    5.3650    1.9130 C.3   140  ILE140      0.0290
    121  CG1       18.2840    5.9970    0.9710 C.3   140  ILE140      0.0022
    122  CG2       17.3560    5.9880    3.3150 C.3   140  ILE140      0.0023
    123  CD1       17.6870    7.0650    0.1030 C.3   140  ILE140      0.0001
    124  N         16.9870    2.7860    4.0910 N.am  141  TYR141     -0.1960
    125  CA        16.1700    2.1650    5.1370 C.3   141  TYR141      0.1771
    126  C         15.0500    3.0810    5.6080 C.2   141  TYR141      0.2620
    127  O         15.2450    4.2780    5.7930 O.2   141  TYR141     -0.2715
    128  CB        17.0470    1.7690    6.3330 C.3   141  TYR141      0.0574
    129  CG        16.3200    1.0770    7.4920 C.ar  141  TYR141     -0.0198
    130  CD1       16.1370   -0.3040    7.4970 C.ar  141  TYR141     -0.0009
    131  CD2       15.8600    1.8040    8.5960 C.ar  141  TYR141     -0.0009
    132  CE1       15.5100   -0.9450    8.5550 C.ar  141  TYR141      0.0417
    133  CE2       15.2250    1.1690    9.6600 C.ar  141  TYR141      0.0417
    134  CZ        15.0600   -0.2100    9.6340 C.ar  141  TYR141      0.1957
    135  OH        14.4240   -0.8670   10.6700 O.3   141  TYR141     -0.2866
    136  N         13.8760    2.4970    5.7930 N.am  142  THR142     -0.1937
    137  CA        12.7280    3.2080    6.2980 C.3   142  THR142      0.2028
    138  C         11.8420    2.1840    6.9900 C.2   142  THR142      0.2642
    139  O         11.4640    1.1700    6.3890 O.2   142  THR142     -0.2714
    140  CB        11.9510    3.9170    5.1570 C.3   142  THR142      0.1808
    141  OG1       12.8810    4.5660    4.2730 O.3   142  THR142     -0.2208
    142  CG2       10.9660    4.9480    5.7190 C.3   142  THR142      0.0379
    143  N         11.5460    2.4440    8.2600 N.am  143  TYR143     -0.1959
    144  CA        10.6330    1.6290    9.0470 C.3   143  TYR143      0.1771
    145  C          9.3280    2.4110    9.1920 C.2   143  TYR143      0.2620
    146  O          9.3190    3.5050    9.7570 O.2   143  TYR143     -0.2715
    147  CB        11.2600    1.3570   10.4110 C.3   143  TYR143      0.0574
    148  CG        10.5170    0.3770   11.2730 C.ar  143  TYR143     -0.0198
    149  CD1       10.8380   -0.9820   11.2530 C.ar  143  TYR143     -0.0009
    150  CD2        9.5000    0.8080   12.1260 C.ar  143  TYR143     -0.0009
    151  CE1       10.1630   -1.8830   12.0560 C.ar  143  TYR143      0.0417
    152  CE2        8.8080   -0.0870   12.9260 C.ar  143  TYR143      0.0417
    153  CZ         9.1450   -1.4270   12.8930 C.ar  143  TYR143      0.1957
    154  OH         8.4550   -2.3100   13.6940 O.3   143  TYR143     -0.2866
    155  N          8.2330    1.8550    8.6750 N.am  144  THR144     -0.1937
    156  CA         6.9830    2.6170    8.5360 C.3   144  THR144      0.2028
    157  C          5.9130    2.2280    9.5630 C.2   144  THR144      0.2643
    158  O          4.7170    2.1520    9.2440 O.2   144  THR144     -0.2714
    159  CB         6.3890    2.5060    7.1020 C.3   144  THR144      0.1808
    160  OG1        5.8690    1.1900    6.8920 O.3   144  THR144     -0.2208
    161  CG2        7.4380    2.8250    6.0460 C.3   144  THR144      0.0379
    162  N          6.3440    2.0090   10.8030 N.am  145  GLY145     -0.1939
    163  CA         5.4560    1.4930   11.8500 C.3   145  GLY145      0.2014
    164  C          5.1870    0.0130   11.6340 C.2   145  GLY145      0.2639
    165  O          5.0590   -0.4420   10.4980 O.2   145  GLY145     -0.2714
    166  N          5.1010   -0.7370   12.7270 N.am  146  LYS146     -0.1963
    167  CA         4.8250   -2.1740   12.6730 C.3   146  LYS146      0.1728
    168  C          3.3630   -2.4650   12.2980 C.2   146  LYS146      0.2617
    169  O          2.4270   -2.0840   13.0190 O.2   146  LYS146     -0.2715
    170  CB         5.1990   -2.8190   14.0140 C.3   146  LYS146      0.0311
    171  CG         4.5920   -4.1920   14.2870 C.3   146  LYS146      0.0038
    172  CD         5.2970   -5.3210   13.5610 C.3   146  LYS146      0.0206
    173  CE         4.5360   -6.6090   13.7730 C.3   146  LYS146      0.1093
    174  NZ         5.3660   -7.8060   13.4570 N.3   146  LYS146     -0.1314
    175  N          3.1810   -3.1160   11.1490 N.am  147  SER147     -0.1936
    176  CA         1.8700   -3.5930   10.6990 C.3   147  SER147      0.2055
    177  C          2.0670   -4.8880    9.9100 C.2   147  SER147      0.2643
    178  O          3.2080   -5.3280    9.7310 O.2   147  SER147     -0.2714
    179  CB         1.1520   -2.5260    9.8700 C.3   147  SER147      0.2130
    180  OG         2.0110   -1.9320    8.9120 O.3   147  SER147     -0.2179
    181  N          0.9840   -5.5280    9.4690 N.am  148  HIS148     -0.1959
    182  CA         1.1220   -6.7400    8.6520 C.3   148  HIS148      0.1787
    183  C          1.9660   -6.3900    7.4200 C.2   148  HIS148      0.2620
    184  O          1.7530   -5.3410    6.8080 O.2   148  HIS148     -0.2715
    185  CB        -0.2550   -7.3020    8.2570 C.3   148  HIS148      0.0785
    186  CG        -0.1970   -8.6390    7.5730 C.ar  148  HIS148      0.0821
    187  ND1       -0.3820   -8.7910    6.2140 N.ar  148  HIS148     -0.2267
    188  CD2        0.0320   -9.8830    8.0600 C.ar  148  HIS148      0.1154
    189  CE1       -0.2690  -10.0690    5.8930 C.ar  148  HIS148      0.1986
    190  NE2       -0.0220  -10.7540    6.9960 N.ar  148  HIS148     -0.2212
    191  N          2.9510   -7.2250    7.0840 N.am  149  PHE149     -0.1960
    192  CA         3.8210   -6.9170    5.9330 C.3   149  PHE149      0.1771
    193  C          3.2160   -7.3280    4.5980 C.2   149  PHE149      0.2619
    194  O          2.9800   -8.5200    4.3300 O.2   149  PHE149     -0.2715
    195  CB         5.2460   -7.4890    6.0520 C.3   149  PHE149      0.0574
    196  CG         6.2160   -6.8890    5.0480 C.ar  149  PHE149     -0.0200
    197  CD1        6.9590   -5.7530    5.3700 C.ar  149  PHE149     -0.0042
    198  CD2        6.3560   -7.4380    3.7670 C.ar  149  PHE149     -0.0042
    199  CE1        7.8380   -5.1820    4.4460 C.ar  149  PHE149     -0.0003
    200  CE2        7.2350   -6.8650    2.8310 C.ar  149  PHE149     -0.0003
    201  CZ         7.9750   -5.7350    3.1740 C.ar  149  PHE149     -0.0000
    202  N          2.9850   -6.3200    3.7660 N.am  150  MET150     -0.1977
    203  CA         2.5000   -6.5250    2.4220 C.3   150  MET150      0.1605
    204  C          3.4370   -5.8230    1.4440 C.2   150  MET150      0.2287
    205  O          3.4960   -4.5990    1.4030 O.2   150  MET150     -0.2864
    206  CB         1.0500   -6.0170    2.2970 C.3   150  MET150      0.0413
    207  CG         0.0110   -6.9190    3.0010 C.3   150  MET150      0.0598
    208  SD        -0.9800   -8.0460    1.9740 S.3   150  MET150     -0.1393
    209  CE        -0.0020   -8.2040    0.4810 C.3   150  MET150      0.0692
    210  N          5.2330   -3.9610   -1.4300 N.3   152  PRO152     -0.2116
    211  CA         4.7680   -2.9660   -2.4100 C.3   152  PRO152      0.1372
    212  C          4.6810   -3.4760   -3.8620 C.2   152  PRO152      0.2244
    213  O          5.3820   -4.4250   -4.2520 O.2   152  PRO152     -0.2868
    214  CB         5.7980   -1.8430   -2.2800 C.3   152  PRO152      0.0268
    215  CG         6.3400   -1.9950   -0.9010 C.3   152  PRO152      0.0207
    216  CD         6.4010   -3.4640   -0.6710 C.3   152  PRO152      0.0892
@<TRIPOS>BOND
     1    80    74    1
     2    80    79    1
     3   213   212    2
     4    74    75    1
     5    89    86    1
     6   212   211    1
     7   114   115    1
     8   114   113    1
     9    79    78    1
    10   106   104   ar
    11   106   108   ar
    12   104   103   ar
    13   115   109    1
    14    98    99    1
    15    75    78    1
    16    75    76    1
    17    86    85    1
    18    86    87    1
    19    99   102    1
    20    99   100    1
    21   211   214    1
    22   211   210    1
    23   214   215    1
    24    85    83   am
    25   113   110    1
    26   109   100   am
    27   109   110    1
    28    81    76   am
    29    81    82    1
    30   108   107   ar
    31   103   102    1
    32   103   105   ar
    33   100   101    2
    34    76    77    2
    35    87    90   am
    36    87    88    2
    37   210   216    1
    38   110   111    1
    39    83    82    1
    40    83    84    2
    41    90    91    1
    42    92    91    1
    43    92    93    2
    44   215   216    1
    45    67    66    2
    46   107   105   ar
    47    72    73   ar
    48    72    70   ar
    49    73    71   ar
    50    91    94    1
    51    94    95    1
    52    70    69   ar
    53   111   116   am
    54   111   112    2
    55   123   121    1
    56    66    65    1
    57    71    69   ar
    58   209   208    1
    59    97    95    1
    60    95    96    1
    61   116   117    1
    62    69    68    1
    63    65    68    1
    64    65    64    1
    65   121   120    1
    66   205   204    2
    67   204   203    1
    68   120   117    1
    69   120   122    1
    70   117   118    1
    71   208   207    1
    72   206   203    1
    73   206   207    1
    74   203   202    1
    75   119   118    2
    76   200   201   ar
    77   200   198   ar
    78   118   124   am
    79   201   199   ar
    80   202   193   am
    81   198   196   ar
    82    60    59    2
    83   124   125    1
    84   141   140    1
    85   194   193    2
    86   199   197   ar
    87   193   192    1
    88    52    51    2
    89     4     3    2
    90   196   197   ar
    91   196   195    1
    92   125   126    1
    93   125   128    1
    94    59    58    1
    95   140   142    1
    96   140   137    1
    97   126   127    2
    98   126   136   am
    99   136   137    1
   100     3     2    1
   101   189   187   ar
   102   189   190   ar
   103   192   195    1
   104   192   191    1
   105    58    57    1
   106    58    61    1
   107   161   159    1
   108    62    61    1
   109    10    11    1
   110    51    57   am
   111    51    50    1
   112   187   186   ar
   113    55    54    1
   114    47    48   ar
   115    47    45   ar
   116   137   138    1
   117   128   129    1
   118    48    46   ar
   119   139   138    2
   120    41    40    2
   121    12    11    1
   122    12    13    2
   123    54    53    1
   124    54    56    1
   125   184   183    2
   126    61    63    1
   127   160   159    1
   128    50    53    1
   129    50    49    1
   130   138   143   am
   131   190   188   ar
   132    11    14    1
   133     2     1    1
   134     2     5    1
   135    14    15    1
   136   191   183   am
   137   159   156    1
   138    15    16    1
   139    15    17    1
   140    45    43   ar
   141   183   182    1
   142    46    44   ar
   143   129   130   ar
   144   129   131   ar
   145   130   132   ar
   146   186   188   ar
   147   186   185    1
   148    40    49   am
   149    40    39    1
   150     6     5    1
   151     6     7    1
   152   185   182    1
   153   143   144    1
   154    43    44   ar
   155    43    42    1
   156   156   155    1
   157   156   157    1
   158   132   134   ar
   159   131   133   ar
   160   182   181    1
   161     8     7    1
   162     8     9    1
   163   155   145   am
   164    39    42    1
   165    39    38    1
   166   180   179    1
   167   144   145    1
   168   144   147    1
   169   145   146    2
   170   158   157    2
   171   181   177   am
   172   157   162   am
   173   134   133   ar
   174   134   135    1
   175   178   177    2
   176    33    32    2
   177   179   176    1
   178   177   176    1
   179   147   148    1
   180   165   164    2
   181    36    35    2
   182   176   175    1
   183   162   163    1
   184    32    31    1
   185   175   168   am
   186   149   148   ar
   187   149   151   ar
   188   148   150   ar
   189    35    34    1
   190    35    37   am
   191    34    31    1
   192   164   163    1
   193   164   166   am
   194    31    30    1
   195   151   153   ar
   196   150   152   ar
   197   168   167    1
   198   168   169    2
   199   167   166    1
   200   167   170    1
   201   153   152   ar
   202   153   154    1
   203   174   173    1
   204   172   173    1
   205   172   171    1
   206   170   171    1
   207    27    26    2
   208    26    25    1
   209    23    22    1
   210    19    20    1
   211    19    18    1
   212    19    22    1
   213    24    20   am
   214    24    25    1
   215    20    21    2
   216    25    28    1
   217    28    29    1
