@<TRIPOS>MOLECULE
tmp/2p0aB00.pdb
 201 191 0 0 0
SMALL
GASTEIGER

@<TRIPOS>ATOM
      1  N          6.6890   14.8400  -15.0720 N.3    68  HIS68      -0.1241
      2  CA         6.6470   13.3910  -14.8030 C.3    68  HIS68       0.1621
      3  C          5.3580   13.0180  -14.0870 C.2    68  HIS68       0.2264
      4  O          5.0220   13.6250  -13.0800 O.2    68  HIS68      -0.2867
      5  CB         7.8170   12.9580  -13.9030 C.3    68  HIS68       0.0745
      6  CG         9.1700   13.1770  -14.4970 C.ar   68  HIS68       0.0817
      7  ND1        9.4960   12.7820  -15.7760 N.ar   68  HIS68      -0.2268
      8  CD2       10.2920   13.7290  -13.9760 C.ar   68  HIS68       0.1154
      9  CE1       10.7580   13.0940  -16.0210 C.ar   68  HIS68       0.1986
     10  NE2       11.2610   13.6740  -14.9470 N.ar   68  HIS68      -0.2212
     11  N         10.0020    2.9210  -15.7440 N.3   105  LYS105     -0.1245
     12  CA        11.3140    2.8870  -16.3690 C.3   105  LYS105      0.1561
     13  C         11.7030    1.5390  -16.9650 C.2   105  LYS105      0.2260
     14  O         12.1620    1.4890  -18.0910 O.2   105  LYS105     -0.2867
     15  CB        12.3780    3.3670  -15.4070 C.3   105  LYS105      0.0271
     16  CG        12.3420    4.8660  -15.2490 C.3   105  LYS105      0.0035
     17  CD        13.5670    5.3980  -14.5900 C.3   105  LYS105      0.0206
     18  CE        13.6840    6.9000  -14.7890 C.3   105  LYS105      0.1093
     19  NZ        14.8900    7.4050  -14.1050 N.3   105  LYS105     -0.1314
     20  N         23.4800   -0.5240  -22.0790 N.3   127  VAL127     -0.1245
     21  CA        24.1500   -1.0550  -20.9040 C.3   127  VAL127      0.1561
     22  C         23.5280   -2.4090  -20.5650 C.2   127  VAL127      0.2260
     23  O         22.3080   -2.5870  -20.6590 O.2   127  VAL127     -0.2867
     24  CB        24.0930   -0.0190  -19.7150 C.3   127  VAL127      0.0252
     25  CG1       22.6750    0.1120  -19.1610 C.3   127  VAL127      0.0019
     26  CG2       25.1460   -0.3480  -18.6090 C.3   127  VAL127      0.0019
     27  N         25.7030   -0.3000  -10.2520 N.3   147  VAL147     -0.1245
     28  CA        24.6770    0.6990   -9.9610 C.3   147  VAL147      0.1561
     29  C         23.3250   -0.0030   -9.8140 C.2   147  VAL147      0.2260
     30  O         22.8250   -0.6180  -10.7600 O.2   147  VAL147     -0.2867
     31  CB        24.5800    1.8020  -11.0090 C.3   147  VAL147      0.0252
     32  CG1       23.4960    2.8010  -10.5750 C.3   147  VAL147      0.0019
     33  CG2       25.9280    2.5130  -11.1600 C.3   147  VAL147      0.0019
     34  N         19.3450    0.5190   -9.2680 N.3   149  LYS149     -0.1245
     35  CA        18.3280    1.5540   -9.4860 C.3   149  LYS149      0.1561
     36  C         17.0030    0.9770   -9.0380 C.2   149  LYS149      0.2260
     37  O         16.5280   -0.0220   -9.5730 O.2   149  LYS149     -0.2867
     38  CB        18.3070    2.0040  -10.9480 C.3   149  LYS149      0.0271
     39  CG        19.6580    2.4950  -11.4210 C.3   149  LYS149      0.0035
     40  CD        19.6380    2.9680  -12.8270 C.3   149  LYS149      0.0206
     41  CE        21.0470    3.4430  -13.2320 C.3   149  LYS149      0.1093
     42  NZ        21.1220    3.9670  -14.6400 N.3   149  LYS149     -0.1314
     43  N         13.2670    9.6380  -10.0770 N.3   154  HIS154     -0.1226
     44  CA        13.9640   10.5770  -10.9250 C.3   154  HIS154      0.1752
     45  C         14.9810   11.3910  -10.1510 C.2   154  HIS154      0.2596
     46  O         15.0750   11.3340   -8.9170 O.2   154  HIS154     -0.2718
     47  CB        12.9670   11.5240  -11.6100 C.3   154  HIS154      0.0759
     48  CG        11.8590   10.8250  -12.3250 C.ar  154  HIS154      0.0818
     49  ND1       11.9880   10.3400  -13.6080 N.ar  154  HIS154     -0.2268
     50  CD2       10.5930   10.5520  -11.9400 C.ar  154  HIS154      0.1154
     51  CE1       10.8390    9.8020  -13.9820 C.ar  154  HIS154      0.1986
     52  NE2        9.9810    9.9100  -12.9830 N.ar  154  HIS154     -0.2212
     53  N         15.7660   12.1440  -10.9080 N.am  155  ALA155     -0.1966
     54  CA        16.7410   13.0840  -10.3500 C.3   155  ALA155      0.1728
     55  C         17.7030   12.4270   -9.3520 C.2   155  ALA155      0.2616
     56  O         17.9840   12.9810   -8.2930 O.2   155  ALA155     -0.2715
     57  CB        16.0200   14.3020   -9.7160 C.3   155  ALA155      0.0334
     58  N         18.1990   11.2450   -9.7080 N.am  156  GLY156     -0.1955
     59  CA        19.2020   10.5180   -8.9210 C.3   156  GLY156      0.1869
     60  C         18.6710    9.7090   -7.7510 C.2   156  GLY156      0.2309
     61  O         19.4370    9.0020   -7.0870 O.2   156  GLY156     -0.2863
     62  N         19.1190    5.5510   -6.7490 N.3   159  LYS159     -0.1245
     63  CA        20.2370    5.0730   -7.5470 C.3   159  LYS159      0.1561
     64  C         21.4680    5.1090   -6.6710 C.2   159  LYS159      0.2260
     65  O         21.8020    6.1540   -6.0640 O.2   159  LYS159     -0.2867
     66  CB        20.3510    5.8760   -8.8450 C.3   159  LYS159      0.0271
     67  CG        18.9690    5.8600   -9.4880 C.3   159  LYS159      0.0035
     68  CD        18.7900    6.6120  -10.7370 C.3   159  LYS159      0.0206
     69  CE        17.3380    6.4180  -11.1970 C.3   159  LYS159      0.1093
     70  NZ        16.3410    7.2870  -10.4940 N.3   159  LYS159     -0.1314
     71  N         23.2850   -2.8290  -12.9810 N.3   185  GLU185     -0.1231
     72  CA        24.1590   -2.7240  -14.1460 C.3   185  GLU185      0.1699
     73  C         25.5500   -2.3070  -13.6640 C.2   185  GLU185      0.2592
     74  O         25.6950   -1.7040  -12.5890 O.2   185  GLU185     -0.2718
     75  CB        23.6040   -1.7100  -15.1750 C.3   185  GLU185      0.0402
     76  CG        23.6960   -0.2200  -14.6870 C.3   185  GLU185      0.1161
     77  CD        22.6810    0.7420  -15.3070 C.2   185  GLU185      0.3649
     78  OE1       21.4980    0.3600  -15.4710 O.co2 185  GLU185     -0.2457
     79  OE2       23.0650    1.9200  -15.5900 O.co2 185  GLU185     -0.2457
     80  N         26.5660   -2.6360  -14.4480 N.am  186  ALA186     -0.1966
     81  CA        27.9390   -2.2170  -14.1650 C.3   186  ALA186      0.1728
     82  C         28.0450   -0.7020  -14.0650 C.2   186  ALA186      0.2616
     83  O         27.4910    0.0330  -14.8820 O.2   186  ALA186     -0.2715
     84  CB        28.8980   -2.7220  -15.2400 C.3   186  ALA186      0.0334
     85  N         28.7640   -0.2400  -13.0510 N.am  187  PHE187     -0.1960
     86  CA        29.1870    1.1610  -12.9790 C.3   187  PHE187      0.1771
     87  C         30.2580    1.4600  -14.0520 C.2   187  PHE187      0.2619
     88  O         31.2580    0.7720  -14.1460 O.2   187  PHE187     -0.2715
     89  CB        29.7470    1.4480  -11.5970 C.3   187  PHE187      0.0574
     90  CG        30.2730    2.8320  -11.4400 C.ar  187  PHE187     -0.0200
     91  CD1       29.3910    3.8950  -11.2650 C.ar  187  PHE187     -0.0042
     92  CD2       31.6360    3.0780  -11.4540 C.ar  187  PHE187     -0.0042
     93  CE1       29.8500    5.1840  -11.1160 C.ar  187  PHE187     -0.0003
     94  CE2       32.1140    4.3800  -11.3060 C.ar  187  PHE187     -0.0003
     95  CZ        31.2120    5.4330  -11.1410 C.ar  187  PHE187     -0.0000
     96  N         29.9990    2.4670  -14.8770 N.am  188  ILE188     -0.1977
     97  CA        30.9290    2.9870  -15.8610 C.3   188  ILE188      0.1596
     98  C         31.6950    4.1830  -15.2700 C.2   188  ILE188      0.2287
     99  O         31.0980    5.1690  -14.8350 O.2   188  ILE188     -0.2864
    100  CB        30.1970    3.4560  -17.1590 C.3   188  ILE188      0.0276
    101  CG1       29.3100    2.3390  -17.6910 C.3   188  ILE188      0.0022
    102  CG2       31.1890    3.8820  -18.2510 C.3   188  ILE188      0.0022
    103  CD1       29.9490    0.9720  -17.6310 C.3   188  ILE188      0.0001
    104  N         32.9020    7.1330  -15.9470 N.3   190  SER190     -0.1217
    105  CA        32.4520    7.9850  -17.0390 C.3   190  SER190      0.1889
    106  C         33.0610    9.3810  -16.9420 C.2   190  SER190      0.2288
    107  O         33.0570    9.9880  -15.8690 O.2   190  SER190     -0.2866
    108  CB        30.9390    8.1170  -16.9850 C.3   190  SER190      0.2089
    109  OG        30.3860    8.7610  -18.1350 O.3   190  SER190     -0.2183
    110  N         28.2090   12.5810  -19.2520 N.3   193  ASP193     -0.1239
    111  CA        26.9850   12.1190  -19.8910 C.3   193  ASP193      0.1674
    112  C         26.9140   12.7030  -21.3130 C.2   193  ASP193      0.2266
    113  O         27.3560   13.8210  -21.5530 O.2   193  ASP193     -0.2867
    114  CB        25.7330   12.6090  -19.1660 C.3   193  ASP193      0.1410
    115  CG        25.5330   12.0120  -17.7910 C.2   193  ASP193      0.3668
    116  OD1       26.2270   11.0760  -17.3490 O.co2 193  ASP193     -0.2456
    117  OD2       24.6070   12.5070  -17.1390 O.co2 193  ASP193     -0.2456
    118  N         29.1180   11.3360   -9.3600 N.3   215  TRP215     -0.1227
    119  CA        28.9960   10.2920  -10.3950 C.3   215  TRP215      0.1737
    120  C         27.6300   10.4070  -11.0850 C.2   215  TRP215      0.2595
    121  O         27.5180   10.1330  -12.2700 O.2   215  TRP215     -0.2718
    122  CB        29.3200    8.8720   -9.8760 C.3   215  TRP215      0.0564
    123  CG        28.2960    8.2270   -8.9720 C.ar  215  TRP215      0.0003
    124  CD1       28.2900    8.2520   -7.6160 C.ar  215  TRP215      0.0946
    125  CD2       27.1440    7.4600   -9.3620 C.ar  215  TRP215      0.0152
    126  NE1       27.2130    7.5560   -7.1300 N.ar  215  TRP215     -0.2442
    127  CE2       26.4900    7.0610   -8.1780 C.ar  215  TRP215      0.0810
    128  CE3       26.6010    7.0790  -10.5910 C.ar  215  TRP215      0.0012
    129  CZ2       25.3140    6.3110   -8.1870 C.ar  215  TRP215      0.0191
    130  CZ3       25.4330    6.3360  -10.6020 C.ar  215  TRP215      0.0001
    131  CH2       24.7980    5.9630   -9.4080 C.ar  215  TRP215      0.0015
    132  N         26.6140   10.8620  -10.3430 N.am  216  LYS216     -0.1966
    133  CA        25.3320   11.2200  -10.9300 C.3   216  LYS216      0.1728
    134  C         25.4760   12.6010  -11.5580 C.2   216  LYS216      0.2616
    135  O         25.2660   13.6190  -10.9020 O.2   216  LYS216     -0.2715
    136  CB        24.2310   11.2230   -9.8710 C.3   216  LYS216      0.0311
    137  CG        23.8840    9.8670   -9.3470 C.3   216  LYS216      0.0038
    138  CD        22.8290    9.9780   -8.2240 C.3   216  LYS216      0.0206
    139  CE        22.8290    8.7510   -7.3720 C.3   216  LYS216      0.1093
    140  NZ        22.0630    8.9390   -6.1100 N.3   216  LYS216     -0.1314
    141  N         25.8610   12.6260  -12.8290 N.am  217  ALA217     -0.1963
    142  CA        26.2440   13.8740  -13.4870 C.3   217  ALA217      0.1728
    143  C         25.0750   14.8300  -13.7260 C.2   217  ALA217      0.2616
    144  O         25.3120   15.9990  -14.0180 O.2   217  ALA217     -0.2715
    145  CB        26.9570   13.5850  -14.8380 C.3   217  ALA217      0.0334
    146  N         23.8410   14.3240  -13.6560 N.am  218  ASN218     -0.1972
    147  CA        22.6240   15.1480  -13.8330 C.3   218  ASN218      0.1688
    148  C         22.1200   15.7800  -12.5170 C.2   218  ASN218      0.2292
    149  O         21.0680   16.4100  -12.5030 O.2   218  ASN218     -0.2864
    150  CB        21.4880   14.3450  -14.5130 C.3   218  ASN218      0.1181
    151  CG        20.9690   13.1970  -13.6720 C.2   218  ASN218      0.2629
    152  OD1       21.6300   12.7530  -12.7520 O.2   218  ASN218     -0.2716
    153  ND2       19.7920   12.6720  -14.0290 N.am  218  ASN218     -0.0877
    154  N         20.0960    9.0820  -23.3640 N.3   253  LYS253     -0.1245
    155  CA        21.2730    9.3960  -22.5760 C.3   253  LYS253      0.1561
    156  C         22.2190    8.2240  -22.5090 C.2   253  LYS253      0.2260
    157  O         21.7880    7.0850  -22.3040 O.2   253  LYS253     -0.2867
    158  CB        20.8700    9.7650  -21.1550 C.3   253  LYS253      0.0271
    159  CG        22.0350   10.2370  -20.3280 C.3   253  LYS253      0.0035
    160  CD        21.5680   11.0570  -19.1220 C.3   253  LYS253      0.0206
    161  CE        20.5870   10.2870  -18.2500 C.3   253  LYS253      0.1093
    162  NZ        20.3360   10.9320  -16.9180 N.3   253  LYS253     -0.1314
    163  N         26.4660    7.2260  -21.0400 N.3   255  VAL255     -0.1245
    164  CA        27.6710    7.5780  -20.2810 C.3   255  VAL255      0.1561
    165  C         28.8750    7.2100  -21.1420 C.2   255  VAL255      0.2260
    166  O         28.8000    6.3010  -21.9680 O.2   255  VAL255     -0.2867
    167  CB        27.7170    6.8890  -18.8790 C.3   255  VAL255      0.0252
    168  CG1       26.6940    7.5080  -17.9830 C.3   255  VAL255      0.0019
    169  CG2       27.4910    5.4110  -18.9810 C.3   255  VAL255      0.0019
    170  N         21.9910    4.4070  -21.2560 N.3   265  ILE265     -0.1231
    171  CA        21.4600    4.0960  -19.8970 C.3   265  ILE265      0.1692
    172  C         20.0010    4.5060  -19.6980 C.2   265  ILE265      0.2591
    173  O         19.3640    3.9940  -18.7810 O.2   265  ILE265     -0.2718
    174  CB        22.3220    4.7330  -18.7380 C.3   265  ILE265      0.0266
    175  CG1       22.4800    6.2460  -18.9450 C.3   265  ILE265      0.0019
    176  CG2       23.6640    4.0340  -18.6080 C.3   265  ILE265      0.0020
    177  CD1       22.7380    7.1030  -17.6560 C.3   265  ILE265      0.0001
    178  N         19.4650    5.4030  -20.5390 N.am  266  GLU266     -0.1979
    179  CA        18.1230    5.9510  -20.3180 C.3   266  GLU266      0.1602
    180  C         17.5270    6.5640  -21.5840 C.2   266  GLU266      0.2287
    181  O         18.2480    7.0890  -22.4210 O.2   266  GLU266     -0.2864
    182  CB        18.1220    7.0500  -19.2280 C.3   266  GLU266      0.0415
    183  CG        16.7070    7.3340  -18.7150 C.3   266  GLU266      0.1163
    184  CD        16.5530    8.5540  -17.8430 C.2   266  GLU266      0.3649
    185  OE1       17.4870    9.3810  -17.7180 O.co2 266  GLU266     -0.2457
    186  OE2       15.4300    8.7060  -17.3070 O.co2 266  GLU266     -0.2457
    187  N         14.0620    9.2360  -22.4520 N.3   268  MET268     -0.1245
    188  CA        13.1240   10.1860  -21.8460 C.3   268  MET268      0.1570
    189  C         12.1310   10.6680  -22.8730 C.2   268  MET268      0.2261
    190  O         12.3830   10.5950  -24.0830 O.2   268  MET268     -0.2867
    191  CB        13.8800   11.4110  -21.3470 C.3   268  MET268      0.0387
    192  CG        14.7250   11.1940  -20.1740 C.3   268  MET268      0.0595
    193  SD        16.0880   12.3770  -20.1770 S.3   268  MET268     -0.1393
    194  CE        17.4100   11.2730  -20.7050 C.3   268  MET268      0.0692
    195  N         14.0220   16.7320  -18.8600 N.3   273  PRO273     -0.2116
    196  CA        14.5710   18.0300  -18.4600 C.3   273  PRO273      0.1372
    197  C         15.1330   18.7880  -19.6540 C.2   273  PRO273      0.2244
    198  O         15.7060   18.1850  -20.5400 O.2   273  PRO273     -0.2868
    199  CB        15.6780   17.6500  -17.4890 C.3   273  PRO273      0.0268
    200  CG        15.2890   16.2530  -17.0070 C.3   273  PRO273      0.0207
    201  CD        14.7010   15.6080  -18.1900 C.3   273  PRO273      0.0892
@<TRIPOS>BOND
     1   190   189    2
     2   154   155    1
     3   189   188    1
     4   155   156    1
     5   155   158    1
     6   156   157    2
     7   187   188    1
     8   181   180    2
     9    20    21    1
    10   166   165    2
    11   188   191    1
    12   180   179    1
    13   113   112    2
    14   191   192    1
    15   112   111    1
    16   170   171    1
    17   158   159    1
    18   165   164    1
    19   163   164    1
    20    21    22    1
    21    21    24    1
    22   194   193    1
    23    23    22    2
    24   198   197    2
    25   178   179    1
    26   178   172   am
    27   159   160    1
    28   179   182    1
    29   164   167    1
    30   193   192    1
    31   171   172    1
    32   171   174    1
    33   111   110    1
    34   111   114    1
    35    24    25    1
    36    24    26    1
    37   172   173    2
    38   197   196    1
    39   182   183    1
    40   114   115    1
    41   160   161    1
    42   169   167    1
    43   175   174    1
    44   175   177    1
    45   167   168    1
    46   195   196    1
    47   195   201    1
    48   174   176    1
    49   183   184    1
    50   196   199    1
    51   102   100    1
    52   161   162    1
    53   201   200    1
    54   109   108    1
    55    14    13    2
    56   184   185   ar
    57   184   186   ar
    58   115   116   ar
    59   115   117   ar
    60   101   103    1
    61   101   100    1
    62   199   200    1
    63   100    97    1
    64   105   108    1
    65   105   106    1
    66   105   104    1
    67    13    12    1
    68   106   107    2
    69    12    11    1
    70    12    15    1
    71     9     7   ar
    72     9    10   ar
    73    97    98    1
    74    97    96    1
    75     7     6   ar
    76    79    77   ar
    77    78    77   ar
    78    15    16    1
    79    77    76    1
    80    98    99    2
    81    16    17    1
    82    84    81    1
    83    75    76    1
    84    75    72    1
    85     1     2    1
    86    10     8   ar
    87    83    82    2
    88    96    87   am
    89   145   142    1
    90     2     3    1
    91     2     5    1
    92    18    17    1
    93    18    19    1
    94    42    41    1
    95   150   147    1
    96   150   151    1
    97     6     8   ar
    98     6     5    1
    99    80    81    1
   100    80    73   am
   101    81    82    1
   102    88    87    2
   103    72    73    1
   104    72    71    1
   105     3     4    2
   106    82    85   am
   107    87    86    1
   108   153   151   am
   109   144   143    2
   110    51    49   ar
   111    51    52   ar
   112   147   146    1
   113   147   148    1
   114   143   146   am
   115   143   142    1
   116   151   152    2
   117    73    74    2
   118    49    48   ar
   119   142   141    1
   120    41    40    1
   121    85    86    1
   122    52    50   ar
   123    86    89    1
   124   141   134   am
   125    40    39    1
   126   148   149    2
   127    48    50   ar
   128    48    47    1
   129   121   120    2
   130    47    44    1
   131    89    90    1
   132   134   133    1
   133   134   135    2
   134    92    90   ar
   135    92    94   ar
   136    90    91   ar
   137    39    38    1
   138    94    95   ar
   139    91    93   ar
   140    69    68    1
   141    69    70    1
   142    33    31    1
   143    95    93   ar
   144   120   119    1
   145   120   132   am
   146    31    32    1
   147    31    28    1
   148    38    35    1
   149   133   132    1
   150   133   136    1
   151    44    45    1
   152    44    43    1
   153    53    54    1
   154    53    45   am
   155    30    29    2
   156    68    67    1
   157   130   128   ar
   158   130   131   ar
   159   128   125   ar
   160   119   122    1
   161   119   118    1
   162    54    57    1
   163    54    55    1
   164    27    28    1
   165    45    46    2
   166    28    29    1
   167   122   123    1
   168   136   137    1
   169    58    55   am
   170    58    59    1
   171    37    36    2
   172    67    66    1
   173    35    34    1
   174    35    36    1
   175   131   129   ar
   176   125   123   ar
   177   125   127   ar
   178    55    56    2
   179   137   138    1
   180   123   124   ar
   181    59    60    1
   182    66    63    1
   183   138   139    1
   184   129   127   ar
   185   127   126   ar
   186    60    61    2
   187   124   126   ar
   188    63    62    1
   189    63    64    1
   190   139   140    1
   191    64    65    2
