@<TRIPOS>MOLECULE
tmp/2p0bA01.pdb
 189 185 0 0 0
SMALL
GASTEIGER

@<TRIPOS>ATOM
      1  N        -23.0220    4.0140    8.5710 N.3     3  ASP3       -0.1239
      2  CA       -22.1430    3.5620    9.6560 C.3     3  ASP3        0.1674
      3  C        -22.5370    4.0700   11.0400 C.2     3  ASP3        0.2266
      4  O        -22.1240    3.4950   12.0570 O.2     3  ASP3       -0.2867
      5  CB       -20.7050    3.9420    9.3540 C.3     3  ASP3        0.1410
      6  CG       -20.2230    3.3630    8.0320 C.2     3  ASP3        0.3668
      7  OD1      -20.9760    2.5720    7.4000 O.co2   3  ASP3       -0.2456
      8  OD2      -19.0970    3.7050    7.6300 O.co2   3  ASP3       -0.2456
      9  N        -24.0470    1.4680   13.4460 N.3     6  CYS6       -0.1221
     10  CA       -23.0970    0.5760   14.1060 C.3     6  CYS6        0.1808
     11  C        -22.4060    1.3160   15.2290 C.2     6  CYS6        0.2601
     12  O        -22.1440    0.7460   16.2820 O.2     6  CYS6       -0.2717
     13  CB       -22.0330    0.0890   13.1200 C.3     6  CYS6        0.0970
     14  SG       -22.7190   -0.6050   11.5850 S.3     6  CYS6       -0.0800
     15  N        -22.0870    2.5820   14.9740 N.am    7  LEU7       -0.1979
     16  CA       -21.3070    3.3740   15.9150 C.3     7  LEU7        0.1596
     17  C        -22.1550    3.9130   17.0790 C.2     7  LEU7        0.2287
     18  O        -21.6580    4.6530   17.9330 O.2     7  LEU7       -0.2864
     19  CB       -20.5450    4.4830   15.1830 C.3     7  LEU7        0.0297
     20  CG       -19.4250    4.0090   14.2370 C.3     7  LEU7        0.0022
     21  CD1      -18.6040    5.1810   13.7720 C.3     7  LEU7        0.0001
     22  CD2      -18.5100    2.9680   14.9320 C.3     7  LEU7        0.0001
     23  N        -20.6760    0.4940   18.8480 N.3    10  HIS10      -0.1241
     24  CA       -19.2480    0.2640   18.6630 C.3    10  HIS10       0.1621
     25  C        -18.4390    1.5440   18.8060 C.2    10  HIS10       0.2264
     26  O        -18.9380    2.6300   18.5190 O.2    10  HIS10      -0.2867
     27  CB       -19.0110   -0.3950   17.3030 C.3    10  HIS10       0.0745
     28  CG       -19.5100   -1.7980   17.2550 C.ar   10  HIS10       0.0817
     29  ND1      -18.8500   -2.8340   17.8700 N.ar   10  HIS10      -0.2268
     30  CD2      -20.6420   -2.3250   16.7350 C.ar   10  HIS10       0.1154
     31  CE1      -19.5350   -3.9530   17.6950 C.ar   10  HIS10       0.1986
     32  NE2      -20.6210   -3.6690   17.0010 N.ar   10  HIS10      -0.2212
     33  N        -11.4920    2.8070   17.6860 N.3    14  THR14      -0.1203
     34  CA       -10.8820    1.5080   17.3860 C.3    14  THR14       0.1994
     35  C        -11.7740    0.6220   16.5060 C.2    14  THR14       0.2618
     36  O        -11.2810   -0.2240   15.7450 O.2    14  THR14      -0.2717
     37  CB       -10.5170    0.7350   18.6590 C.3    14  THR14       0.1784
     38  OG1      -11.6810    0.5600   19.4790 O.3    14  THR14      -0.2211
     39  CG2       -9.4500    1.4610   19.4280 C.3    14  THR14       0.0376
     40  N        -13.0830    0.8250   16.6100 N.am   15  GLU15      -0.1965
     41  CA       -14.0170    0.0480   15.7920 C.3    15  GLU15       0.1733
     42  C        -14.5720    0.9040   14.6640 C.2    15  GLU15       0.2617
     43  O        -15.4710    0.5020   13.9050 O.2    15  GLU15      -0.2715
     44  CB       -15.0910   -0.5650   16.6970 C.3    15  GLU15       0.0429
     45  CG       -14.5010   -1.6100   17.6630 C.3    15  GLU15       0.1163
     46  CD       -15.4490   -2.0910   18.7760 C.2    15  GLU15       0.3649
     47  OE1      -16.5030   -1.4720   19.0420 O.co2  15  GLU15      -0.2457
     48  OE2      -15.1110   -3.1160   19.4200 O.co2  15  GLU15      -0.2457
     49  N        -14.0080    2.0990   14.5380 N.am   16  GLY16      -0.1940
     50  CA       -14.2370    2.9370   13.3850 C.3    16  GLY16       0.2014
     51  C        -13.2120    2.5370   12.3480 C.2    16  GLY16       0.2638
     52  O        -12.1540    1.9980   12.6850 O.2    16  GLY16      -0.2714
     53  N        -13.5400    2.7660   11.0890 N.am   17  MET17      -0.1976
     54  CA       -12.6390    2.4250    9.9950 C.3    17  MET17       0.1605
     55  C        -11.7530    3.6390    9.7130 C.2    17  MET17       0.2287
     56  O        -12.2310    4.6560    9.1940 O.2    17  MET17      -0.2864
     57  CB       -13.4530    2.0060    8.7570 C.3    17  MET17       0.0413
     58  CG       -12.6640    1.8630    7.4750 C.3    17  MET17       0.0598
     59  SD       -11.1690    0.8790    7.6790 S.3    17  MET17      -0.1393
     60  CE       -11.8270   -0.7270    8.1240 C.3    17  MET17       0.0692
     61  N         -9.5000    2.1760    3.8180 N.3    21  HIS21      -0.1241
     62  CA       -10.9050    1.9810    3.4370 C.3    21  HIS21       0.1621
     63  C        -11.8270    3.1270    3.8870 C.2    21  HIS21       0.2264
     64  O        -12.9310    3.2550    3.3810 O.2    21  HIS21      -0.2867
     65  CB       -11.4420    0.6140    3.8840 C.3    21  HIS21       0.0745
     66  CG       -10.8110   -0.5430    3.1700 C.ar   21  HIS21       0.0817
     67  ND1       -9.6930   -1.1890    3.6550 N.ar   21  HIS21      -0.2268
     68  CD2      -11.1440   -1.1780    2.0160 C.ar   21  HIS21       0.1154
     69  CE1       -9.3620   -2.1720    2.8330 C.ar   21  HIS21       0.1986
     70  NE2      -10.2330   -2.1960    1.8390 N.ar   21  HIS21      -0.2212
     71  N        -17.3790    3.3350    1.1010 N.3    33  VAL33      -0.1231
     72  CA       -17.3990    2.0120    1.7130 C.3    33  VAL33       0.1692
     73  C        -17.9900    2.1360    3.1210 C.2    33  VAL33       0.2593
     74  O        -17.6350    3.0630    3.8480 O.2    33  VAL33      -0.2718
     75  CB       -15.9790    1.3860    1.7430 C.3    33  VAL33       0.0266
     76  CG1      -15.9590    0.0890    2.5550 C.3    33  VAL33       0.0020
     77  CG2      -15.5070    1.1140    0.3130 C.3    33  VAL33       0.0020
     78  N        -18.9110    1.2290    3.4620 N.am   34  THR34      -0.1939
     79  CA       -19.5970    1.2320    4.7740 C.3    34  THR34       0.2028
     80  C        -19.2730   -0.0360    5.5500 C.2    34  THR34       0.2642
     81  O        -18.7600   -1.0020    4.9780 O.2    34  THR34      -0.2714
     82  CB       -21.1430    1.2940    4.6200 C.3    34  THR34       0.1808
     83  OG1      -21.6160    0.1190    3.9310 O.3    34  THR34      -0.2208
     84  CG2      -21.5650    2.5280    3.8640 C.3    34  THR34       0.0379
     85  N        -19.5970   -0.0390    6.8470 N.am   35  CYS35      -0.1967
     86  CA       -19.3890   -1.2130    7.6900 C.3    35  CYS35       0.1712
     87  C        -19.9570   -2.5030    7.0950 C.2    35  CYS35       0.2296
     88  O        -19.2920   -3.5480    7.1300 O.2    35  CYS35      -0.2864
     89  CB       -20.0410   -1.0140    9.0610 C.3    35  CYS35       0.0983
     90  SG       -19.6350    0.5190    9.9200 S.3    35  CYS35      -0.0798
     91  N        -18.1740   -4.9500    4.4520 N.3    38  CYS38      -0.1221
     92  CA       -17.2580   -6.0120    4.9110 C.3    38  CYS38       0.1808
     93  C        -17.8590   -6.9860    5.9200 C.2    38  CYS38       0.2601
     94  O        -17.5160   -8.1620    5.9200 O.2    38  CYS38      -0.2717
     95  CB       -15.9650   -5.4380    5.4780 C.3    38  CYS38       0.0970
     96  SG       -15.0260   -4.5350    4.2240 S.3    38  CYS38      -0.0800
     97  N        -18.7210   -6.4710    6.8040 N.am   39  HIS39      -0.1975
     98  CA       -19.2290   -7.2500    7.9190 C.3    39  HIS39       0.1656
     99  C        -20.6320   -7.8200    7.7380 C.2    39  HIS39       0.2291
    100  O        -21.0770   -8.6570    8.5360 O.2    39  HIS39      -0.2864
    101  CB       -19.2000   -6.4010    9.2040 C.3    39  HIS39       0.0771
    102  CG       -17.8180   -6.1460    9.7190 C.ar   39  HIS39       0.0820
    103  ND1      -17.0050   -7.1530   10.1940 N.ar   39  HIS39      -0.2267
    104  CD2      -17.0790   -5.0100    9.7750 C.ar   39  HIS39       0.1154
    105  CE1      -15.8380   -6.6450   10.5620 C.ar   39  HIS39       0.1986
    106  NE2      -15.8650   -5.3440   10.3420 N.ar   39  HIS39      -0.2212
    107  N        -13.3510  -11.1680   11.1230 N.3    56  PHE56      -0.1227
    108  CA       -12.0880  -11.4430   10.4300 C.3    56  PHE56       0.1736
    109  C        -10.9690  -11.8450   11.3960 C.2    56  PHE56       0.2595
    110  O        -10.8380  -11.2510   12.4670 O.2    56  PHE56      -0.2718
    111  CB       -11.6740  -10.2180    9.6050 C.3    56  PHE56       0.0547
    112  CG       -12.6890   -9.8480    8.5660 C.ar   56  PHE56      -0.0202
    113  CD1      -12.7870  -10.6000    7.3970 C.ar   56  PHE56      -0.0042
    114  CD2      -13.5580   -8.7670    8.7720 C.ar   56  PHE56      -0.0042
    115  CE1      -13.7370  -10.2750    6.4150 C.ar   56  PHE56      -0.0003
    116  CE2      -14.5190   -8.4160    7.7960 C.ar   56  PHE56      -0.0003
    117  CZ       -14.6050   -9.1890    6.6170 C.ar   56  PHE56      -0.0000
    118  N        -10.1810  -12.8670   11.0120 N.am   57  ASN57      -0.1960
    119  CA        -9.0530  -13.3690   11.8370 C.3    57  ASN57       0.1819
    120  C         -9.4630  -13.8370   13.2380 C.2    57  ASN57       0.2621
    121  O         -8.6980  -13.7100   14.2060 O.2    57  ASN57      -0.2715
    122  CB        -7.9310  -12.3160   11.9040 C.3    57  ASN57       0.1195
    123  CG        -6.5750  -12.9010   12.2730 C.2    57  ASN57       0.2630
    124  OD1       -5.7830  -12.2560   13.0080 O.2    57  ASN57      -0.2716
    125  ND2       -6.2680  -14.0730   11.7420 N.am   57  ASN57      -0.0877
    126  N        -10.6800  -14.3780   13.3190 N.am   58  GLU58      -0.1977
    127  CA       -11.1990  -15.0610   14.5040 C.3    58  GLU58       0.1602
    128  C        -11.6890  -16.4550   14.0710 C.2    58  GLU58       0.2287
    129  O        -11.9480  -16.6750   12.8900 O.2    58  GLU58      -0.2864
    130  CB       -12.3470  -14.2570   15.1200 C.3    58  GLU58       0.0415
    131  CG       -11.9480  -12.8480   15.5180 C.3    58  GLU58       0.1163
    132  CD       -13.0120  -12.1470   16.3500 C.2    58  GLU58       0.3649
    133  OE1      -14.1150  -12.7080   16.5330 O.co2  58  GLU58      -0.2457
    134  OE2      -12.7290  -11.0330   16.8380 O.co2  58  GLU58      -0.2457
    135  N         -6.7620  -11.1510    7.0150 N.3    96  ALA96      -0.1245
    136  CA        -6.4570  -10.2770    8.1520 C.3    96  ALA96       0.1562
    137  C         -5.4360  -10.8490    9.1500 C.2    96  ALA96       0.2260
    138  O         -5.1160  -10.1880   10.1530 O.2    96  ALA96      -0.2867
    139  CB        -7.7440   -9.8370    8.8750 C.3    96  ALA96       0.0290
    140  N         -3.0170   -8.4140    7.0430 N.3    99  HIS99      -0.1226
    141  CA        -3.4710   -7.0360    6.9520 C.3    99  HIS99       0.1752
    142  C         -4.1930   -6.6070    8.2120 C.2    99  HIS99       0.2597
    143  O         -4.8690   -7.4240    8.8320 O.2    99  HIS99      -0.2718
    144  CB        -4.4120   -6.8850    5.7560 C.3    99  HIS99       0.0759
    145  CG        -3.6990   -6.9770    4.4450 C.ar   99  HIS99       0.0818
    146  ND1       -2.8330   -6.0000    4.0130 N.ar   99  HIS99      -0.2268
    147  CD2       -3.6660   -7.9580    3.5140 C.ar   99  HIS99       0.1154
    148  CE1       -2.3310   -6.3550    2.8350 C.ar   99  HIS99       0.1986
    149  NE2       -2.8250   -7.5380    2.5130 N.ar   99  HIS99      -0.2212
    150  N         -4.0370   -5.3320    8.5720 N.am  100  SER100     -0.1938
    151  CA        -4.8340   -4.7150    9.6340 C.3   100  SER100      0.2055
    152  C         -5.5210   -3.4830    9.0220 C.2   100  SER100      0.2643
    153  O         -4.8320   -2.5320    8.6110 O.2   100  SER100     -0.2714
    154  CB        -3.9540   -4.3390   10.8340 C.3   100  SER100      0.2130
    155  OG        -3.2960   -5.4820   11.3740 O.3   100  SER100     -0.2179
    156  N         -6.8470   -3.5280    8.9250 N.am  101  LEU101     -0.1963
    157  CA        -7.5810   -2.5440    8.1300 C.3   101  LEU101      0.1728
    158  C         -8.1670   -1.3760    8.9150 C.2   101  LEU101      0.2616
    159  O         -8.3670   -0.3020    8.3460 O.2   101  LEU101     -0.2715
    160  CB        -8.6570   -3.2210    7.2660 C.3   101  LEU101      0.0311
    161  CG        -8.2000   -4.3260    6.3020 C.3   101  LEU101      0.0022
    162  CD1       -9.4020   -4.7210    5.4140 C.3   101  LEU101      0.0001
    163  CD2       -7.0060   -3.8120    5.4460 C.3   101  LEU101      0.0001
    164  N         -8.4620   -1.5970   10.2030 N.am  102  HIS102     -0.1960
    165  CA        -9.0530   -0.5390   11.0260 C.3   102  HIS102      0.1772
    166  C         -8.0980    0.5910   11.4580 C.2   102  HIS102      0.2462
    167  O         -8.5190    1.7560   11.4920 O.2   102  HIS102     -0.2730
    168  CB        -9.7550   -1.1270   12.2560 C.3   102  HIS102      0.0785
    169  CG       -11.1570   -1.5590   11.9790 C.ar  102  HIS102      0.0821
    170  ND1      -12.2460   -0.7640   12.2710 N.ar  102  HIS102     -0.2267
    171  CD2      -11.6500   -2.6780   11.3960 C.ar  102  HIS102      0.1154
    172  CE1      -13.3540   -1.3920   11.9070 C.ar  102  HIS102      0.1986
    173  NE2      -13.0210   -2.5580   11.3870 N.ar  102  HIS102     -0.2212
    174  N         -6.8410    0.2530   11.8060 N.am  103  PRO103     -0.2727
    175  CA        -5.9090    1.3060   12.2550 C.3   103  PRO103      0.1402
    176  C         -5.5710    2.3050   11.1650 C.2   103  PRO103      0.2269
    177  O         -5.8550    2.0710    9.9790 O.2   103  PRO103     -0.2865
    178  CB        -4.6510    0.5220   12.6520 C.3   103  PRO103      0.0296
    179  CG        -5.1440   -0.9050   12.9030 C.3   103  PRO103      0.0237
    180  CD        -6.2120   -1.0850   11.8760 C.3   103  PRO103      0.0939
    181  N          0.4000   -9.7890   15.0290 N.3   142  LYS142     -0.1245
    182  CA        -0.2960   -8.6670   15.6730 C.3   142  LYS142      0.1561
    183  C          0.4350   -8.1600   16.9170 C.2   142  LYS142      0.2260
    184  O          1.1600   -8.9120   17.5480 O.2   142  LYS142     -0.2867
    185  CB        -1.7260   -9.0780   16.0280 C.3   142  LYS142      0.0271
    186  CG        -2.5290   -9.6300   14.8340 C.3   142  LYS142      0.0035
    187  CD        -2.5370   -8.6150   13.6880 C.3   142  LYS142      0.0206
    188  CE        -3.3850   -9.0830   12.5050 C.3   142  LYS142      0.1093
    189  NZ        -3.1930   -8.2160   11.3080 N.3   142  LYS142     -0.1314
@<TRIPOS>BOND
     1    77    75    1
     2    71    72    1
     3    72    75    1
     4    72    73    1
     5    75    76    1
     6    70    68   ar
     7    70    69   ar
     8    68    66   ar
     9   149   148   ar
    10   149   147   ar
    11    69    67   ar
    12   148   146   ar
    13    73    78   am
    14    73    74    2
    15    66    67   ar
    16    66    65    1
    17    64    63    2
    18    62    61    1
    19    62    65    1
    20    62    63    1
    21    78    79    1
    22   147   145   ar
    23    84    82    1
    24    83    82    1
    25   146   145   ar
    26    96    95    1
    27   145   144    1
    28    91    92    1
    29    82    79    1
    30    79    80    1
    31    92    95    1
    32    92    93    1
    33    81    80    2
    34   162   161    1
    35   163   161    1
    36    80    85   am
    37   144   141    1
    38    94    93    2
    39    93    97   am
    40   161   160    1
    41   115   117   ar
    42   115   113   ar
    43   117   116   ar
    44    97    98    1
    45    85    86    1
    46   141   140    1
    47   141   142    1
    48   135   136    1
    49    87    88    2
    50    87    86    1
    51   160   157    1
    52   113   112   ar
    53     7     6   ar
    54    58    59    1
    55    58    57    1
    56     8     6   ar
    57    59    60    1
    58    86    89    1
    59    99    98    1
    60    99   100    2
    61   116   114   ar
    62    98   101    1
    63     6     5    1
    64   157   158    1
    65   157   156    1
    66   136   139    1
    67   136   137    1
    68   142   150   am
    69   142   143    2
    70   159   158    2
    71   112   114   ar
    72   112   111    1
    73     1     2    1
    74   150   151    1
    75   153   152    2
    76    57    54    1
    77   158   164   am
    78   156   152   am
    79   152   151    1
    80    89    90    1
    81   137   138    2
    82    56    55    2
    83   101   102    1
    84     5     2    1
    85   111   108    1
    86   151   154    1
    87     2     3    1
    88    55    54    1
    89   102   104   ar
    90   102   103   ar
    91   104   106   ar
    92   177   176    2
    93    54    53    1
    94   103   105   ar
    95   164   165    1
    96   106   105   ar
    97   108   107    1
    98   108   109    1
    99   154   155    1
   100   118   109   am
   101   118   119    1
   102   165   166    1
   103   165   168    1
   104     3     4    2
   105    53    51   am
   106   176   175    1
   107   189   188    1
   108   173   171   ar
   109   173   172   ar
   110   109   110    2
   111   171   169   ar
   112   166   167    2
   113   166   174   am
   114    14    13    1
   115   125   123   am
   116   174   180    1
   117   174   175    1
   118   119   122    1
   119   119   120    1
   120   180   179    1
   121   122   123    1
   122   172   170   ar
   123   169   168    1
   124   169   170   ar
   125   175   178    1
   126   123   124    2
   127    51    52    2
   128    51    50    1
   129   188   187    1
   130   178   179    1
   131   129   128    2
   132    13    10    1
   133   120   126   am
   134   120   121    2
   135   126   127    1
   136    50    49    1
   137     9    10    1
   138   187   186    1
   139    21    20    1
   140    43    42    2
   141   128   127    1
   142    10    11    1
   143    20    22    1
   144    20    19    1
   145   127   130    1
   146    49    42   am
   147    42    41    1
   148   186   185    1
   149    15    11   am
   150    15    16    1
   151   181   182    1
   152   130   131    1
   153    19    16    1
   154    11    12    2
   155   131   132    1
   156   182   185    1
   157   182   183    1
   158    36    35    2
   159    41    40    1
   160    41    44    1
   161    16    17    1
   162   132   133   ar
   163   132   134   ar
   164    35    40   am
   165    35    34    1
   166    44    45    1
   167    30    32   ar
   168    30    28   ar
   169   183   184    2
   170    32    31   ar
   171    17    18    2
   172    28    27    1
   173    28    29   ar
   174    27    24    1
   175    34    33    1
   176    34    37    1
   177    45    46    1
   178    31    29   ar
   179    26    25    2
   180    37    39    1
   181    37    38    1
   182    24    25    1
   183    24    23    1
   184    46    47   ar
   185    46    48   ar
