@<TRIPOS>MOLECULE
tmp/2p0bA00.pdb
 165 161 0 0 0
SMALL
GASTEIGER

@<TRIPOS>ATOM
      1  N        -24.7980    5.5060    6.9330 N.3     2  PRO2       -0.2116
      2  CA       -25.0620    4.0890    7.2310 C.3     2  PRO2        0.1372
      3  C        -24.2760    3.5860    8.4510 C.2     2  PRO2        0.2244
      4  O        -24.8240    2.8560    9.2800 O.2     2  PRO2       -0.2868
      5  CB       -24.6000    3.3660    5.9590 C.3     2  PRO2        0.0268
      6  CG       -24.7220    4.3870    4.8820 C.3     2  PRO2        0.0207
      7  CD       -24.3700    5.6960    5.5290 C.3     2  PRO2        0.0892
      8  N        -25.3640    3.8460   12.5330 N.3     5  ALA5       -0.1231
      9  CA       -26.0830    2.7920   13.2560 C.3     5  ALA5        0.1694
     10  C        -25.1280    1.9240   14.0770 C.2     5  ALA5        0.2592
     11  O        -25.3530    1.6970   15.2640 O.2     5  ALA5       -0.2718
     12  CB       -26.9000    1.9240   12.2930 C.3     5  ALA5        0.0304
     13  N        -24.0470    1.4680   13.4460 N.am    6  CYS6       -0.1970
     14  CA       -23.0970    0.5760   14.1060 C.3     6  CYS6        0.1712
     15  C        -22.4060    1.3160   15.2290 C.2     6  CYS6        0.2296
     16  O        -22.1440    0.7460   16.2820 O.2     6  CYS6       -0.2864
     17  CB       -22.0330    0.0890   13.1200 C.3     6  CYS6        0.0983
     18  SG       -22.7190   -0.6050   11.5850 S.3     6  CYS6       -0.0798
     19  N        -23.4210    3.5050   17.1220 N.3     8  ASP8       -0.1225
     20  CA       -24.2610    3.7520   18.2900 C.3     8  ASP8        0.1805
     21  C        -23.7910    2.8810   19.4450 C.2     8  ASP8        0.2598
     22  O        -23.9540    3.2420   20.6130 O.2     8  ASP8       -0.2718
     23  CB       -25.7330    3.4720   17.9820 C.3     8  ASP8        0.1424
     24  CG       -26.4080    4.6070   17.2210 C.2     8  ASP8        0.3668
     25  OD1      -25.8080    5.6960   17.0530 O.co2   8  ASP8       -0.2456
     26  OD2      -27.5590    4.4030   16.7910 O.co2   8  ASP8       -0.2456
     27  N        -23.2180    1.7170   19.1180 N.am    9  CYS9       -0.1956
     28  CA       -22.6870    0.8200   20.1450 C.3     9  CYS9        0.1843
     29  C        -21.1880    0.6670   20.0620 C.2     9  CYS9        0.2625
     30  O        -20.5050    0.6870   21.0800 O.2     9  CYS9       -0.2714
     31  CB       -23.3040   -0.5640   20.0410 C.3     9  CYS9        0.0997
     32  SG       -25.0950   -0.5390   20.2010 S.3     9  CYS9       -0.0797
     33  N        -20.6760    0.4940   18.8480 N.am   10  HIS10      -0.1973
     34  CA       -19.2480    0.2640   18.6630 C.3    10  HIS10       0.1656
     35  C        -18.4390    1.5440   18.8060 C.2    10  HIS10       0.2291
     36  O        -18.9380    2.6300   18.5190 O.2    10  HIS10      -0.2864
     37  CB       -19.0110   -0.3950   17.3030 C.3    10  HIS10       0.0771
     38  CG       -19.5100   -1.7980   17.2550 C.ar   10  HIS10       0.0820
     39  ND1      -18.8500   -2.8340   17.8700 N.ar   10  HIS10      -0.2267
     40  CD2      -20.6420   -2.3250   16.7350 C.ar   10  HIS10       0.1154
     41  CE1      -19.5350   -3.9530   17.6950 C.ar   10  HIS10       0.1986
     42  NE2      -20.6210   -3.6690   17.0010 N.ar   10  HIS10      -0.2212
     43  N        -13.0830    0.8250   16.6100 N.3    15  GLU15      -0.1245
     44  CA       -14.0170    0.0480   15.7920 C.3    15  GLU15       0.1567
     45  C        -14.5720    0.9040   14.6640 C.2    15  GLU15       0.2260
     46  O        -15.4710    0.5020   13.9050 O.2    15  GLU15      -0.2867
     47  CB       -15.0910   -0.5650   16.6970 C.3    15  GLU15       0.0388
     48  CG       -14.5010   -1.6100   17.6630 C.3    15  GLU15       0.1160
     49  CD       -15.4490   -2.0910   18.7760 C.2    15  GLU15       0.3649
     50  OE1      -16.5030   -1.4720   19.0420 O.co2  15  GLU15      -0.2457
     51  OE2      -15.1110   -3.1160   19.4200 O.co2  15  GLU15      -0.2457
     52  N        -19.5970   -0.0390    6.8470 N.3    35  CYS35      -0.1221
     53  CA       -19.3890   -1.2130    7.6900 C.3    35  CYS35       0.1808
     54  C        -19.9570   -2.5030    7.0950 C.2    35  CYS35       0.2601
     55  O        -19.2920   -3.5480    7.1300 O.2    35  CYS35      -0.2717
     56  CB       -20.0410   -1.0140    9.0610 C.3    35  CYS35       0.0970
     57  SG       -19.6350    0.5190    9.9200 S.3    35  CYS35      -0.0800
     58  N        -21.1820   -2.4510    6.5640 N.am   36  THR36      -0.1953
     59  CA       -21.8340   -3.7010    6.1380 C.3    36  THR36       0.1897
     60  C        -21.1670   -4.2680    4.8720 C.2    36  THR36       0.2313
     61  O        -21.3220   -5.4460    4.5710 O.2    36  THR36      -0.2863
     62  CB       -23.3270   -3.5220    5.8380 C.3    36  THR36       0.1794
     63  OG1      -23.4660   -2.5740    4.7730 O.3    36  THR36      -0.2208
     64  CG2      -24.0750   -3.0300    7.0890 C.3    36  THR36       0.0378
     65  N        -18.7210   -6.4710    6.8040 N.3    39  HIS39      -0.1226
     66  CA       -19.2290   -7.2500    7.9190 C.3    39  HIS39       0.1752
     67  C        -20.6320   -7.8200    7.7380 C.2    39  HIS39       0.2596
     68  O        -21.0770   -8.6570    8.5360 O.2    39  HIS39      -0.2718
     69  CB       -19.2000   -6.4010    9.2040 C.3    39  HIS39       0.0759
     70  CG       -17.8180   -6.1460    9.7190 C.ar   39  HIS39       0.0818
     71  ND1      -17.0050   -7.1530   10.1940 N.ar   39  HIS39      -0.2268
     72  CD2      -17.0790   -5.0100    9.7750 C.ar   39  HIS39       0.1154
     73  CE1      -15.8380   -6.6450   10.5620 C.ar   39  HIS39       0.1986
     74  NE2      -15.8650   -5.3440   10.3420 N.ar   39  HIS39      -0.2212
     75  N        -21.3560   -7.3780    6.7200 N.am   40  GLY40      -0.1957
     76  CA       -22.7300   -7.8540    6.6180 C.3    40  GLY40       0.1869
     77  C        -23.6090   -7.1840    7.6570 C.2    40  GLY40       0.2309
     78  O        -23.2890   -6.0970    8.1460 O.2    40  GLY40      -0.2863
     79  N        -26.1260   -7.1460   11.1890 N.3    42  PRO42      -0.2116
     80  CA       -26.5240   -7.7030   12.4790 C.3    42  PRO42       0.1372
     81  C        -27.9710   -8.2130   12.4670 C.2    42  PRO42       0.2244
     82  O        -28.8370   -7.6360   11.7890 O.2    42  PRO42      -0.2868
     83  CB       -26.4110   -6.5130   13.4320 C.3    42  PRO42       0.0268
     84  CG       -25.5100   -5.5620   12.7560 C.3    42  PRO42       0.0207
     85  CD       -25.7910   -5.7130   11.2990 C.3    42  PRO42       0.0892
     86  N        -27.8740  -10.1910   17.6000 N.3    46  HIS46      -0.1226
     87  CA       -26.4850   -9.7350   17.4360 C.3    46  HIS46       0.1752
     88  C        -25.6490   -9.7170   18.7340 C.2    46  HIS46       0.2596
     89  O        -24.5330  -10.2500   18.7700 O.2    46  HIS46      -0.2718
     90  CB       -26.5000   -8.3520   16.8110 C.3    46  HIS46       0.0759
     91  CG       -25.1470   -7.8270   16.4560 C.ar   46  HIS46       0.0818
     92  ND1      -24.3410   -8.4250   15.5130 N.ar   46  HIS46      -0.2268
     93  CD2      -24.4840   -6.7240   16.8740 C.ar   46  HIS46       0.1154
     94  CE1      -23.2270   -7.7270   15.3820 C.ar   46  HIS46       0.1986
     95  NE2      -23.2920   -6.6840   16.1890 N.ar   46  HIS46      -0.2212
     96  N        -26.1980   -9.1220   19.7950 N.am   47  ARG47      -0.1966
     97  CA       -25.4730   -9.0000   21.0770 C.3    47  ARG47       0.1729
     98  C        -25.1120  -10.3280   21.7600 C.2    47  ARG47       0.2616
     99  O        -24.2960  -10.3460   22.6820 O.2    47  ARG47      -0.2715
    100  CB       -26.2540   -8.1280   22.0630 C.3    47  ARG47       0.0348
    101  CG       -26.6000   -6.7310   21.5630 C.3    47  ARG47       0.0492
    102  CD       -27.4060   -6.0050   22.6350 C.3    47  ARG47       0.2205
    103  NE       -28.1090   -4.8380   22.1140 N.pl3  47  ARG47      -0.0865
    104  CZ       -29.3920   -4.8190   21.7570 C.cat  47  ARG47       0.5346
    105  NH1      -30.1380   -5.9150   21.8590 N.pl3  47  ARG47       0.1354
    106  NH2      -29.9360   -3.6970   21.2990 N.pl3  47  ARG47       0.1354
    107  N        -25.7170  -11.4260   21.3040 N.am   48  GLU48      -0.1963
    108  CA       -25.4970  -12.7510   21.8860 C.3    48  GLU48       0.1733
    109  C        -24.2930  -13.4760   21.2770 C.2    48  GLU48       0.2616
    110  O        -23.8360  -14.4870   21.8060 O.2    48  GLU48      -0.2715
    111  CB       -26.7650  -13.6060   21.7460 C.3    48  GLU48       0.0429
    112  CG       -27.9790  -13.0420   22.4980 C.3    48  GLU48       0.1163
    113  CD       -29.3080  -13.6020   22.0080 C.2    48  GLU48       0.3649
    114  OE1      -30.2750  -12.8200   21.8740 O.co2  48  GLU48      -0.2457
    115  OE2      -29.3930  -14.8170   21.7570 O.co2  48  GLU48      -0.2457
    116  N        -23.7780  -12.9630   20.1610 N.am   49  GLY49      -0.1955
    117  CA       -22.6450  -13.5920   19.4980 C.3    49  GLY49       0.1869
    118  C        -23.1500  -14.7310   18.6300 C.2    49  GLY49       0.2309
    119  O        -23.1300  -15.8980   19.0300 O.2    49  GLY49      -0.2863
    120  N        -22.9430  -11.1290   11.5690 N.3    53  VAL53      -0.1231
    121  CA       -21.8680  -10.3970   10.9250 C.3    53  VAL53       0.1692
    122  C        -20.6190  -11.2630   10.7200 C.2    53  VAL53       0.2592
    123  O        -20.3400  -12.1860   11.5040 O.2    53  VAL53      -0.2718
    124  CB       -21.4730   -9.1190   11.7000 C.3    53  VAL53       0.0266
    125  CG1      -22.6610   -8.1210   11.7730 C.3    53  VAL53       0.0020
    126  CG2      -20.9300   -9.4740   13.1180 C.3    53  VAL53       0.0020
    127  N        -19.8550  -10.9290    9.6740 N.am   54  MET54      -0.1965
    128  CA       -18.5670  -11.5720    9.4100 C.3    54  MET54       0.1736
    129  C        -17.5500  -11.1000   10.4550 C.2    54  MET54       0.2616
    130  O        -17.5720   -9.9310   10.8590 O.2    54  MET54      -0.2715
    131  CB       -18.0720  -11.2110    7.9970 C.3    54  MET54       0.0427
    132  CG       -16.6600  -11.7440    7.6570 C.3    54  MET54       0.0599
    133  SD       -16.3430  -13.4960    8.0140 S.3    54  MET54      -0.1393
    134  CE       -17.5190  -14.2670    6.8820 C.3    54  MET54       0.0692
    135  N        -16.6840  -12.0170   10.8820 N.am   55  ARG55      -0.1963
    136  CA       -15.6130  -11.7170   11.8510 C.3    55  ARG55       0.1729
    137  C        -14.2970  -12.1060   11.2000 C.2    55  ARG55       0.2616
    138  O        -14.1720  -13.2170   10.7130 O.2    55  ARG55      -0.2715
    139  CB       -15.8220  -12.5070   13.1490 C.3    55  ARG55       0.0348
    140  CG       -17.0770  -12.0580   13.8980 C.3    55  ARG55       0.0492
    141  CD       -17.2460  -12.7200   15.2450 C.3    55  ARG55       0.2205
    142  NE       -18.5930  -12.4450   15.7440 N.pl3  55  ARG55      -0.0865
    143  CZ       -18.9120  -12.1400   16.9970 C.cat  55  ARG55       0.5346
    144  NH1      -17.9680  -12.0390   17.9380 N.pl3  55  ARG55       0.1354
    145  NH2      -20.1880  -11.9040   17.3000 N.pl3  55  ARG55       0.1354
    146  N        -13.3510  -11.1680   11.1230 N.am   56  PHE56      -0.1974
    147  CA       -12.0880  -11.4430   10.4300 C.3    56  PHE56       0.1639
    148  C        -10.9690  -11.8450   11.3960 C.2    56  PHE56       0.2290
    149  O        -10.8380  -11.2510   12.4670 O.2    56  PHE56      -0.2864
    150  CB       -11.6740  -10.2180    9.6050 C.3    56  PHE56       0.0560
    151  CG       -12.6890   -9.8480    8.5660 C.ar   56  PHE56      -0.0200
    152  CD1      -12.7870  -10.6000    7.3970 C.ar   56  PHE56      -0.0042
    153  CD2      -13.5580   -8.7670    8.7720 C.ar   56  PHE56      -0.0042
    154  CE1      -13.7370  -10.2750    6.4150 C.ar   56  PHE56      -0.0003
    155  CE2      -14.5190   -8.4160    7.7960 C.ar   56  PHE56      -0.0003
    156  CZ       -14.6050   -9.1890    6.6170 C.ar   56  PHE56      -0.0000
    157  N        -10.6800  -14.3780   13.3190 N.3    58  GLU58      -0.1245
    158  CA       -11.1990  -15.0610   14.5040 C.3    58  GLU58       0.1567
    159  C        -11.6890  -16.4550   14.0710 C.2    58  GLU58       0.2260
    160  O        -11.9480  -16.6750   12.8900 O.2    58  GLU58      -0.2867
    161  CB       -12.3470  -14.2570   15.1200 C.3    58  GLU58       0.0388
    162  CG       -11.9480  -12.8480   15.5180 C.3    58  GLU58       0.1160
    163  CD       -13.0120  -12.1470   16.3500 C.2    58  GLU58       0.3649
    164  OE1      -14.1150  -12.7080   16.5330 O.co2  58  GLU58      -0.2457
    165  OE2      -12.7290  -11.0330   16.8380 O.co2  58  GLU58      -0.2457
@<TRIPOS>BOND
     1    61    60    2
     2    63    62    1
     3    60    59    1
     4     6     7    1
     5     6     5    1
     6     7     1    1
     7    62    59    1
     8    62    64    1
     9     5     2    1
    10    59    58    1
    11   154   156   ar
    12   154   152   ar
    13    58    54   am
    14   156   155   ar
    15    76    75    1
    16    76    77    1
    17    75    67   am
    18    65    66    1
    19    52    53    1
    20   134   133    1
    21     1     2    1
    22    54    55    2
    23    54    53    1
    24     2     3    1
    25   152   151   ar
    26    77    78    2
    27   132   131    1
    28   132   133    1
    29    53    56    1
    30    67    66    1
    31    67    68    2
    32   155   153   ar
    33    66    69    1
    34   131   128    1
    35     3     4    2
    36   151   153   ar
    37   151   150    1
    38    56    57    1
    39    69    70    1
    40   128   127    1
    41   128   129    1
    42   150   147    1
    43   127   122   am
    44    70    72   ar
    45    70    71   ar
    46    72    74   ar
    47    71    73   ar
    48    74    73   ar
    49   147   146    1
    50   147   148    1
    51   129   130    2
    52   129   135   am
    53   138   137    2
    54   122   121    1
    55   122   123    2
    56   135   136    1
    57   121   120    1
    58   121   124    1
    59   146   137   am
    60    79    85    1
    61    79    80    1
    62   137   136    1
    63    85    84    1
    64   148   149    2
    65    18    17    1
    66   124   125    1
    67   124   126    1
    68    82    81    2
    69   136   139    1
    70    12     9    1
    71    81    80    1
    72    80    83    1
    73     8     9    1
    74    84    83    1
    75   160   159    2
    76    17    14    1
    77   139   140    1
    78     9    10    1
    79   157   158    1
    80    13    10   am
    81    13    14    1
    82   140   141    1
    83    46    45    2
    84   159   158    1
    85    10    11    2
    86    14    15    1
    87   158   161    1
    88    45    44    1
    89   161   162    1
    90    15    16    2
    91   141   142    1
    92    94    92   ar
    93    94    95   ar
    94    92    91   ar
    95   162   163    1
    96   142   143    2
    97    44    43    1
    98    44    47    1
    99    95    93   ar
   100   163   164   ar
   101   163   165   ar
   102    91    90    1
   103    91    93   ar
   104    47    48    1
   105    40    42   ar
   106    40    38   ar
   107    26    24   ar
   108    90    87    1
   109   143   145    1
   110   143   144    1
   111    42    41   ar
   112    25    24   ar
   113    19    20    1
   114    24    23    1
   115    38    37    1
   116    38    39   ar
   117    37    34    1
   118    87    86    1
   119    87    88    1
   120    48    49    1
   121    41    39   ar
   122    23    20    1
   123    20    21    1
   124    36    35    2
   125   118   119    2
   126   118   117    1
   127    34    35    1
   128    34    33    1
   129    88    89    2
   130    88    96   am
   131    49    50   ar
   132    49    51   ar
   133    33    29   am
   134    27    21   am
   135    27    28    1
   136    21    22    2
   137   117   116    1
   138    96    97    1
   139    31    28    1
   140    31    32    1
   141    29    28    1
   142    29    30    2
   143   116   109   am
   144    97    98    1
   145    97   100    1
   146   109   110    2
   147   109   108    1
   148   106   104    1
   149   107    98   am
   150   107   108    1
   151   101   100    1
   152   101   102    1
   153   111   108    1
   154   111   112    1
   155   104   105    1
   156   104   103    2
   157   115   113   ar
   158    98    99    2
   159   114   113   ar
   160   113   112    1
   161   103   102    1
