@<TRIPOS>MOLECULE
tmp/2p0bA03.pdb
 189 182 0 0 0
SMALL
GASTEIGER

@<TRIPOS>ATOM
      1  N        -12.2840  -14.6700    3.5450 N.3    67  ASN67      -0.1240
      2  CA       -11.5750  -14.1130    2.3990 C.3    67  ASN67       0.1653
      3  C        -12.4760  -13.7560    1.2150 C.2    67  ASN67       0.2266
      4  O        -12.1930  -12.8120    0.4570 O.2    67  ASN67      -0.2867
      5  CB       -10.4610  -15.0670    1.9680 C.3    67  ASN67       0.1155
      6  CG        -9.3360  -15.1430    3.0050 C.2    67  ASN67       0.2627
      7  OD1       -9.4120  -14.5160    4.0720 O.2    67  ASN67      -0.2716
      8  ND2       -8.2930  -15.8990    2.6860 N.am   67  ASN67      -0.0877
      9  N        -13.7080  -10.0690    0.9010 N.3    70  CYS70      -0.1221
     10  CA       -12.7330   -9.1930    0.2380 C.3    70  CYS70       0.1808
     11  C        -12.8770   -9.2230   -1.2710 C.2    70  CYS70       0.2601
     12  O        -12.7010   -8.1920   -1.9140 O.2    70  CYS70      -0.2717
     13  CB       -11.3010   -9.5600    0.6390 C.3    70  CYS70       0.0970
     14  SG       -11.1030   -9.7200    2.4380 S.3    70  CYS70      -0.0800
     15  N        -13.2080  -10.3950   -1.8180 N.am   71  MET71      -0.1979
     16  CA       -13.2760  -10.6080   -3.2670 C.3    71  MET71       0.1605
     17  C        -14.6230  -10.1910   -3.8660 C.2    71  MET71       0.2287
     18  O        -14.8670  -10.3810   -5.0630 O.2    71  MET71      -0.2864
     19  CB       -12.9370  -12.0730   -3.6080 C.3    71  MET71       0.0413
     20  CG       -11.5560  -12.5170   -3.1280 C.3    71  MET71       0.0598
     21  SD       -10.1970  -11.3220   -3.4830 S.3    71  MET71      -0.1393
     22  CE        -8.8630  -12.3180   -2.8580 C.3    71  MET71       0.0692
     23  N        -12.2190   -6.8530   -4.5430 N.3    74  HIS74      -0.1241
     24  CA       -10.8550   -7.0280   -5.0410 C.3    74  HIS74       0.1621
     25  C        -10.8020   -8.0550   -6.1450 C.2    74  HIS74       0.2264
     26  O        -11.6890   -8.9160   -6.2520 O.2    74  HIS74      -0.2867
     27  CB        -9.9120   -7.3580   -3.8770 C.3    74  HIS74       0.0745
     28  CG        -9.6650   -6.1780   -3.0060 C.ar   74  HIS74       0.0817
     29  ND1       -8.8520   -5.1410   -3.4010 N.ar   74  HIS74      -0.2268
     30  CD2      -10.1920   -5.8140   -1.8120 C.ar   74  HIS74       0.1154
     31  CE1       -8.8650   -4.1980   -2.4760 C.ar   74  HIS74       0.1986
     32  NE2       -9.6560   -4.5870   -1.4960 N.ar   74  HIS74      -0.2212
     33  N         -5.2740   -8.7960   -9.9510 N.3    78  GLN78      -0.1231
     34  CA        -4.5620   -7.5990   -9.5330 C.3    78  GLN78       0.1698
     35  C         -3.7630   -7.8310   -8.2570 C.2    78  GLN78       0.2592
     36  O         -2.6630   -7.3120   -8.1220 O.2    78  GLN78      -0.2718
     37  CB        -5.4960   -6.4000   -9.3660 C.3    78  GLN78       0.0381
     38  CG        -6.2120   -6.0120  -10.6710 C.3    78  GLN78       0.0905
     39  CD        -5.2470   -5.8190  -11.8320 C.2    78  GLN78       0.2608
     40  OE1       -4.9940   -6.7500  -12.5990 O.2    78  GLN78      -0.2717
     41  NE2       -4.6860   -4.6130  -11.9540 N.am   78  GLN78      -0.0878
     42  N         -4.3020   -8.6120   -7.3280 N.am   79  LEU79      -0.1980
     43  CA        -3.5160   -8.9380   -6.1190 C.3    79  LEU79       0.1596
     44  C         -2.1680   -9.6000   -6.4820 C.2    79  LEU79       0.2287
     45  O         -1.1580   -9.3280   -5.8410 O.2    79  LEU79      -0.2864
     46  CB        -4.3200   -9.8110   -5.1710 C.3    79  LEU79       0.0297
     47  CG        -5.6410   -9.2130   -4.6560 C.3    79  LEU79       0.0022
     48  CD1       -6.2300  -10.1820   -3.6220 C.3    79  LEU79       0.0001
     49  CD2       -5.5390   -7.8090   -4.0640 C.3    79  LEU79       0.0001
     50  N          0.3530   -7.0610   -7.4990 N.3    82  ALA82      -0.1231
     51  CA         0.8070   -6.3080   -6.3390 C.3    82  ALA82       0.1694
     52  C          1.8410   -7.0770   -5.5160 C.2    82  ALA82       0.2592
     53  O          2.8280   -6.5070   -5.0230 O.2    82  ALA82      -0.2718
     54  CB        -0.3840   -5.9510   -5.4380 C.3    82  ALA82       0.0304
     55  N          1.6060   -8.3740   -5.3480 N.am   83  PHE83      -0.1976
     56  CA         2.4150   -9.1760   -4.4270 C.3    83  PHE83       0.1639
     57  C          2.1320  -10.6360   -4.7050 C.2    83  PHE83       0.2290
     58  O          1.0380  -11.1110   -4.4160 O.2    83  PHE83      -0.2864
     59  CB         2.0400   -8.8170   -2.9710 C.3    83  PHE83       0.0560
     60  CG         2.9260   -9.4440   -1.9280 C.ar   83  PHE83      -0.0200
     61  CD1        4.3160   -9.3130   -2.0070 C.ar   83  PHE83      -0.0042
     62  CD2        2.3700  -10.1380   -0.8630 C.ar   83  PHE83      -0.0042
     63  CE1        5.1410   -9.8850   -1.0370 C.ar   83  PHE83      -0.0003
     64  CE2        3.2030  -10.7260    0.1160 C.ar   83  PHE83      -0.0003
     65  CZ         4.5780  -10.5790    0.0160 C.ar   83  PHE83      -0.0000
     66  N          2.7030  -13.7420   -3.4630 N.3    85  PRO85      -0.2102
     67  CA         2.1350  -14.7290   -2.5170 C.3    85  PRO85       0.1504
     68  C          0.6010  -14.7250   -2.3010 C.2    85  PRO85       0.2575
     69  O          0.0370  -15.7020   -1.7670 O.2    85  PRO85      -0.2718
     70  CB         2.9150  -14.4490   -1.2100 C.3    85  PRO85       0.0282
     71  CG         4.2150  -13.9070   -1.6710 C.3    85  PRO85       0.0208
     72  CD         3.8380  -13.0150   -2.8410 C.3    85  PRO85       0.0893
     73  N         -0.0930  -13.6860   -2.7620 N.am   86  HIS86      -0.1976
     74  CA        -1.5490  -13.6590   -2.5960 C.3    86  HIS86       0.1656
     75  C         -2.2970  -14.9260   -3.0380 C.2    86  HIS86       0.2291
     76  O         -3.0530  -15.4900   -2.2610 O.2    86  HIS86      -0.2864
     77  CB        -2.1560  -12.4150   -3.2470 C.3    86  HIS86       0.0771
     78  CG        -1.9800  -11.1640   -2.4420 C.ar   86  HIS86       0.0820
     79  ND1       -1.4320  -10.0180   -2.9700 N.ar   86  HIS86      -0.2267
     80  CD2       -2.3210  -10.8610   -1.1590 C.ar   86  HIS86       0.1154
     81  CE1       -1.4170   -9.0700   -2.0430 C.ar   86  HIS86       0.1986
     82  NE2       -1.9400   -9.5620   -0.9360 N.ar   86  HIS86      -0.2212
     83  N         -2.4500  -17.9900   -0.8650 N.3    89  HIS89      -0.1226
     84  CA        -3.0500  -17.7890    0.4530 C.3    89  HIS89       0.1752
     85  C         -4.5390  -17.5200    0.4320 C.2    89  HIS89       0.2595
     86  O         -5.1790  -17.5900    1.4800 O.2    89  HIS89      -0.2718
     87  CB        -2.3180  -16.6870    1.2200 C.3    89  HIS89       0.0759
     88  CG        -0.9260  -17.0770    1.5970 C.ar   89  HIS89       0.0818
     89  ND1        0.1810  -16.5370    0.9850 N.ar   89  HIS89      -0.2268
     90  CD2       -0.4650  -18.0070    2.4690 C.ar   89  HIS89       0.1154
     91  CE1        1.2710  -17.0850    1.5010 C.ar   89  HIS89       0.1986
     92  NE2        0.9060  -18.0010    2.3840 N.ar   89  HIS89      -0.2212
     93  N         -5.0960  -17.2340   -0.7480 N.am   90  VAL90      -0.1980
     94  CA        -6.5210  -16.8400   -0.8490 C.3    90  VAL90       0.1595
     95  C         -7.4470  -17.8730   -0.1950 C.2    90  VAL90       0.2287
     96  O         -8.4030  -17.5060    0.4930 O.2    90  VAL90      -0.2864
     97  CB        -6.9390  -16.5710   -2.3210 C.3    90  VAL90       0.0276
     98  CG1       -8.4600  -16.4130   -2.4540 C.3    90  VAL90       0.0022
     99  CG2       -6.2400  -15.3290   -2.8390 C.3    90  VAL90       0.0022
    100  N         -5.1850  -18.9710    4.2140 N.3    93  VAL93      -0.1231
    101  CA        -5.0270  -18.2490    5.4850 C.3    93  VAL93       0.1692
    102  C         -5.8540  -16.9720    5.4670 C.2    93  VAL93       0.2592
    103  O         -6.0190  -16.3740    4.4060 O.2    93  VAL93      -0.2718
    104  CB        -3.5250  -18.0020    5.8400 C.3    93  VAL93       0.0266
    105  CG1       -2.9110  -16.9430    4.9240 C.3    93  VAL93       0.0020
    106  CG2       -3.3680  -17.6370    7.3310 C.3    93  VAL93       0.0020
    107  N         -6.4070  -16.5770    6.6140 N.am   94  ALA94      -0.1966
    108  CA        -7.2130  -15.3250    6.6850 C.3    94  ALA94       0.1728
    109  C         -6.4200  -14.1030    6.1710 C.2    94  ALA94       0.2616
    110  O         -5.2610  -13.8910    6.5820 O.2    94  ALA94      -0.2715
    111  CB        -7.6850  -15.0920    8.1030 C.3    94  ALA94       0.0334
    112  N         -7.0220  -13.3190    5.2680 N.am   95  CYS95      -0.1968
    113  CA        -6.3530  -12.0900    4.7920 C.3    95  CYS95       0.1712
    114  C         -5.9110  -11.2330    5.9810 C.2    95  CYS95       0.2296
    115  O         -4.8420  -10.6220    5.9390 O.2    95  CYS95      -0.2864
    116  CB        -7.2960  -11.2120    3.9580 C.3    95  CYS95       0.0983
    117  SG        -8.0610  -11.9910    2.5700 S.3    95  CYS95      -0.0798
    118  N         -4.9010  -12.0470    8.8760 N.3    97  SER97      -0.1202
    119  CA        -3.7100  -12.5220    9.6080 C.3    97  SER97       0.2020
    120  C         -2.5240  -11.6010    9.2670 C.2    97  SER97       0.2619
    121  O         -1.6710  -11.3400   10.1250 O.2    97  SER97      -0.2717
    122  CB        -3.3620  -13.9860    9.2710 C.3    97  SER97       0.2103
    123  OG        -2.9410  -14.1260    7.9130 O.3    97  SER97      -0.2182
    124  N         -2.4680  -11.1280    8.0180 N.am   98  CYS98      -0.1955
    125  CA        -1.4300  -10.1660    7.6230 C.3    98  CYS98       0.1843
    126  C         -1.9070   -8.7150    7.7070 C.2    98  CYS98       0.2625
    127  O         -1.2520   -7.8850    8.3120 O.2    98  CYS98      -0.2714
    128  CB        -0.9230  -10.4300    6.2110 C.3    98  CYS98       0.0997
    129  SG         0.0540  -11.9610    6.1000 S.3    98  CYS98      -0.0797
    130  N         -3.0170   -8.4140    7.0430 N.am   99  HIS99      -0.1973
    131  CA        -3.4710   -7.0360    6.9520 C.3    99  HIS99       0.1656
    132  C         -4.1930   -6.6070    8.2120 C.2    99  HIS99       0.2291
    133  O         -4.8690   -7.4240    8.8320 O.2    99  HIS99      -0.2864
    134  CB        -4.4120   -6.8850    5.7560 C.3    99  HIS99       0.0771
    135  CG        -3.6990   -6.9770    4.4450 C.ar   99  HIS99       0.0820
    136  ND1       -2.8330   -6.0000    4.0130 N.ar   99  HIS99      -0.2267
    137  CD2       -3.6660   -7.9580    3.5140 C.ar   99  HIS99       0.1154
    138  CE1       -2.3310   -6.3550    2.8350 C.ar   99  HIS99       0.1986
    139  NE2       -2.8250   -7.5380    2.5130 N.ar   99  HIS99      -0.2212
    140  N          1.3330   -4.0610    6.6500 N.3   108  MET108     -0.1230
    141  CA         1.8210   -4.7280    5.4220 C.3   108  MET108      0.1702
    142  C          2.3690   -3.7450    4.3860 C.2   108  MET108      0.2592
    143  O          3.2900   -4.0700    3.6460 O.2   108  MET108     -0.2718
    144  CB         0.7310   -5.5890    4.7780 C.3   108  MET108      0.0401
    145  CG         0.3340   -6.8140    5.5920 C.3   108  MET108      0.0596
    146  SD         1.7100   -7.9740    5.7760 S.3   108  MET108     -0.1393
    147  CE         2.0700   -7.7370    7.5160 C.3   108  MET108      0.0692
    148  N          1.8060   -2.5400    4.3360 N.am  109  GLN109     -0.1979
    149  CA         2.1480   -1.5840    3.2740 C.3   109  GLN109      0.1601
    150  C          3.5120   -0.9460    3.5060 C.2   109  GLN109      0.2287
    151  O          4.1000   -0.3940    2.5800 O.2   109  GLN109     -0.2864
    152  CB         1.0800   -0.4940    3.1500 C.3   109  GLN109      0.0394
    153  CG        -0.3510   -1.0300    3.0010 C.3   109  GLN109      0.0908
    154  CD        -0.5030   -1.9620    1.8150 C.2   109  GLN109      0.2608
    155  OE1       -0.0060   -1.6800    0.7190 O.2   109  GLN109     -0.2717
    156  NE2       -1.1920   -3.0810    2.0220 N.am  109  GLN109     -0.0878
    157  N          6.2200   -2.6170    5.3470 N.3   111  LEU111     -0.1245
    158  CA         7.2630   -3.5840    5.6990 C.3   111  LEU111      0.1561
    159  C          8.5370   -3.3320    4.9090 C.2   111  LEU111      0.2260
    160  O          8.4770   -2.9470    3.7460 O.2   111  LEU111     -0.2867
    161  CB         6.8030   -5.0210    5.4120 C.3   111  LEU111      0.0270
    162  CG         5.7310   -5.7070    6.2490 C.3   111  LEU111      0.0019
    163  CD1        5.4340   -7.0650    5.6320 C.3   111  LEU111      0.0001
    164  CD2        6.2090   -5.8580    7.6790 C.3   111  LEU111      0.0001
    165  N          9.2990   -8.3410    4.8590 N.3   116  ARG116     -0.1245
    166  CA         8.3710   -8.9630    3.9260 C.3   116  ARG116      0.1563
    167  C          8.7230  -10.4300    3.6600 C.2   116  ARG116      0.2260
    168  O          7.9370  -11.1380    3.0590 O.2   116  ARG116     -0.2867
    169  CB         8.2970   -8.1700    2.6230 C.3   116  ARG116      0.0307
    170  CG         6.8840   -8.0680    2.0890 C.3   116  ARG116      0.0489
    171  CD         6.8080   -7.2580    0.8020 C.3   116  ARG116      0.2205
    172  NE         7.3230   -5.9110    1.0050 N.pl3 116  ARG116     -0.0865
    173  CZ         8.5130   -5.4890    0.5900 C.cat 116  ARG116      0.5346
    174  NH1        9.3290   -6.3090   -0.0750 N.pl3 116  ARG116      0.1354
    175  NH2        8.8930   -4.2430    0.8440 N.pl3 116  ARG116      0.1354
    176  N          7.8950  -12.3520    7.6600 N.3   119  ILE119     -0.1231
    177  CA         6.5030  -12.7960    7.9240 C.3   119  ILE119      0.1692
    178  C          6.2980  -14.2400    7.4840 C.2   119  ILE119      0.2592
    179  O          5.5960  -14.9720    8.1460 O.2   119  ILE119     -0.2718
    180  CB         5.3890  -11.8610    7.3270 C.3   119  ILE119      0.0266
    181  CG1        5.5950  -11.6160    5.8300 C.3   119  ILE119      0.0019
    182  CG2        5.3530  -10.5400    8.0830 C.3   119  ILE119      0.0020
    183  CD1        4.3860  -10.8720    5.1440 C.3   119  ILE119      0.0001
    184  N          6.9240  -14.6350    6.3730 N.am  120  CYS120     -0.1970
    185  CA         6.8240  -15.9990    5.8490 C.3   120  CYS120      0.1712
    186  C          7.3970  -16.9870    6.8400 C.2   120  CYS120      0.2296
    187  O          6.7800  -18.0160    7.1450 O.2   120  CYS120     -0.2864
    188  CB         7.6310  -16.1320    4.5450 C.3   120  CYS120      0.0983
    189  SG         7.4340  -14.7330    3.3730 S.3   120  CYS120     -0.0798
@<TRIPOS>BOND
     1    40    39    2
     2    41    39   am
     3    39    38    1
     4    38    37    1
     5    33    34    1
     6    34    37    1
     7    34    35    1
     8    35    36    2
     9    35    42   am
    10    50    51    1
    11    42    43    1
    12    44    43    1
    13    44    45    2
    14    51    52    1
    15    51    54    1
    16    26    25    2
    17    25    24    1
    18    43    46    1
    19    52    55   am
    20    52    53    2
    21    55    56    1
    22    46    47    1
    23    18    17    2
    24    24    23    1
    25    24    27    1
    26    57    56    1
    27    57    58    2
    28    47    49    1
    29    47    48    1
    30    56    59    1
    31    27    28    1
    32    17    16    1
    33    19    16    1
    34    19    20    1
    35    21    20    1
    36    21    22    1
    37    66    72    1
    38    66    67    1
    39    29    28   ar
    40    29    31   ar
    41    16    15    1
    42    77    74    1
    43    77    78    1
    44    75    74    1
    45    75    76    2
    46    28    30   ar
    47    59    60    1
    48    79    78   ar
    49    79    81   ar
    50    72    71    1
    51    99    97    1
    52    73    74    1
    53    73    68   am
    54    67    68    1
    55    67    70    1
    56    31    32   ar
    57    98    97    1
    58    78    80   ar
    59    97    94    1
    60    68    69    2
    61    81    82   ar
    62    61    60   ar
    63    61    63   ar
    64    60    62   ar
    65    12    11    2
    66    15    11   am
    67    30    32   ar
    68    71    70    1
    69    11    10    1
    70    80    82   ar
    71    63    65   ar
    72    83    84    1
    73    62    64   ar
    74    94    93    1
    75    94    95    1
    76    93    85   am
    77    95    96    2
    78   174   173    1
    79    65    64   ar
    80    10    13    1
    81    10     9    1
    82    85    84    1
    83    85    86    2
    84    84    87    1
    85     4     3    2
    86   173   175    1
    87   173   172    2
    88    13    14    1
    89   155   154    2
    90   171   172    1
    91   171   170    1
    92    89    91   ar
    93    89    88   ar
    94     3     2    1
    95    87    88    1
    96    91    92   ar
    97    88    90   ar
    98   154   156   am
    99   154   153    1
   100     5     2    1
   101     5     6    1
   102   170   169    1
   103    92    90   ar
   104     2     1    1
   105   139   138   ar
   106   139   137   ar
   107   117   116    1
   108   151   150    2
   109   169   166    1
   110     8     6   am
   111   138   136   ar
   112   153   152    1
   113     6     7    2
   114   168   167    2
   115   152   149    1
   116   149   150    1
   117   149   148    1
   118   189   188    1
   119   137   135   ar
   120   143   142    2
   121   167   166    1
   122   160   159    2
   123   166   165    1
   124   116   113    1
   125   136   135   ar
   126   100   101    1
   127   148   142   am
   128   142   141    1
   129   103   102    2
   130   135   134    1
   131   188   185    1
   132   144   141    1
   133   144   145    1
   134   113   112    1
   135   113   114    1
   136   159   158    1
   137   105   104    1
   138   183   181    1
   139   112   109   am
   140   157   158    1
   141   161   158    1
   142   161   162    1
   143   141   140    1
   144   102   101    1
   145   102   107   am
   146   101   104    1
   147   145   146    1
   148   163   162    1
   149   134   131    1
   150   146   147    1
   151   181   180    1
   152   104   106    1
   153   185   184    1
   154   185   186    1
   155   115   114    2
   156   129   128    1
   157   109   110    2
   158   109   108    1
   159   128   125    1
   160   162   164    1
   161   184   178   am
   162   107   108    1
   163   108   111    1
   164   186   187    2
   165   131   130    1
   166   131   132    1
   167   130   126   am
   168   180   177    1
   169   180   182    1
   170   178   177    1
   171   178   179    2
   172   125   126    1
   173   125   124    1
   174   176   177    1
   175   126   127    2
   176   123   122    1
   177   124   120   am
   178   132   133    2
   179   118   119    1
   180   120   119    1
   181   120   121    2
   182   122   119    1
