@<TRIPOS>MOLECULE
tmp/2p0bA04.pdb
 160 156 0 0 0
SMALL
GASTEIGER

@<TRIPOS>ATOM
      1  N          1.6060   -8.3740   -5.3480 N.3    83  PHE83      -0.1227
      2  CA         2.4150   -9.1760   -4.4270 C.3    83  PHE83       0.1736
      3  C          2.1320  -10.6360   -4.7050 C.2    83  PHE83       0.2595
      4  O          1.0380  -11.1110   -4.4160 O.2    83  PHE83      -0.2718
      5  CB         2.0400   -8.8170   -2.9710 C.3    83  PHE83       0.0547
      6  CG         2.9260   -9.4440   -1.9280 C.ar   83  PHE83      -0.0202
      7  CD1        4.3160   -9.3130   -2.0070 C.ar   83  PHE83      -0.0042
      8  CD2        2.3700  -10.1380   -0.8630 C.ar   83  PHE83      -0.0042
      9  CE1        5.1410   -9.8850   -1.0370 C.ar   83  PHE83      -0.0003
     10  CE2        3.2030  -10.7260    0.1160 C.ar   83  PHE83      -0.0003
     11  CZ         4.5780  -10.5790    0.0160 C.ar   83  PHE83      -0.0000
     12  N          3.1150  -11.3400   -5.2750 N.am   84  TRP84      -0.1963
     13  CA         2.8830  -12.7030   -5.7380 C.3    84  TRP84       0.1756
     14  C          2.2100  -13.6680   -4.7260 C.2    84  TRP84       0.2461
     15  O          1.2980  -14.4060   -5.1280 O.2    84  TRP84      -0.2730
     16  CB         4.1580  -13.3540   -6.3070 C.3    84  TRP84       0.0590
     17  CG         3.8290  -14.7170   -6.7740 C.ar   84  TRP84       0.0006
     18  CD1        3.2340  -15.0530   -7.9630 C.ar   84  TRP84       0.0946
     19  CD2        3.9600  -15.9290   -6.0300 C.ar   84  TRP84       0.0152
     20  NE1        3.0330  -16.4150   -8.0210 N.ar   84  TRP84      -0.2442
     21  CE2        3.4670  -16.9790   -6.8480 C.ar   84  TRP84       0.0810
     22  CE3        4.4690  -16.2380   -4.7640 C.ar   84  TRP84       0.0012
     23  CZ2        3.4570  -18.3230   -6.4270 C.ar   84  TRP84       0.0191
     24  CZ3        4.4720  -17.5770   -4.3490 C.ar   84  TRP84       0.0001
     25  CH2        3.9620  -18.5960   -5.1730 C.ar   84  TRP84       0.0015
     26  N          2.7030  -13.7420   -3.4630 N.am   85  PRO85      -0.2727
     27  CA         2.1350  -14.7290   -2.5170 C.3    85  PRO85       0.1402
     28  C          0.6010  -14.7250   -2.3010 C.2    85  PRO85       0.2269
     29  O          0.0370  -15.7020   -1.7670 O.2    85  PRO85      -0.2865
     30  CB         2.9150  -14.4490   -1.2100 C.3    85  PRO85       0.0296
     31  CG         4.2150  -13.9070   -1.6710 C.3    85  PRO85       0.0237
     32  CD         3.8380  -13.0150   -2.8410 C.3    85  PRO85       0.0939
     33  N         -1.6630  -18.1480   -3.5040 N.3    88  VAL88      -0.1231
     34  CA        -1.5550  -19.3660   -2.6910 C.3    88  VAL88       0.1692
     35  C         -2.2480  -19.2240   -1.3300 C.2    88  VAL88       0.2592
     36  O         -2.6040  -20.2240   -0.7270 O.2    88  VAL88      -0.2718
     37  CB        -0.1120  -19.8470   -2.4940 C.3    88  VAL88       0.0266
     38  CG1        0.4540  -20.4160   -3.8340 C.3    88  VAL88       0.0020
     39  CG2        0.7700  -18.7380   -1.9240 C.3    88  VAL88       0.0020
     40  N         -2.4500  -17.9900   -0.8650 N.am   89  HIS89      -0.1976
     41  CA        -3.0500  -17.7890    0.4530 C.3    89  HIS89       0.1656
     42  C         -4.5390  -17.5200    0.4320 C.2    89  HIS89       0.2291
     43  O         -5.1790  -17.5900    1.4800 O.2    89  HIS89      -0.2864
     44  CB        -2.3180  -16.6870    1.2200 C.3    89  HIS89       0.0771
     45  CG        -0.9260  -17.0770    1.5970 C.ar   89  HIS89       0.0820
     46  ND1        0.1810  -16.5370    0.9850 N.ar   89  HIS89      -0.2267
     47  CD2       -0.4650  -18.0070    2.4690 C.ar   89  HIS89       0.1154
     48  CE1        1.2710  -17.0850    1.5010 C.ar   89  HIS89       0.1986
     49  NE2        0.9060  -18.0010    2.3840 N.ar   89  HIS89      -0.2212
     50  N         -6.2090  -20.3390    1.8770 N.3    92  LYS92      -0.1231
     51  CA        -5.4180  -21.0220    2.8810 C.3    92  LYS92       0.1693
     52  C         -5.2440  -20.3010    4.2180 C.2    92  LYS92       0.2591
     53  O         -5.1370  -20.9670    5.2450 O.2    92  LYS92      -0.2718
     54  CB        -4.0500  -21.4320    2.3270 C.3    92  LYS92       0.0285
     55  CG        -4.1270  -22.4160    1.1430 C.3    92  LYS92       0.0035
     56  CD        -4.6580  -23.7790    1.6090 C.3    92  LYS92       0.0206
     57  CE        -4.6440  -24.7920    0.4560 C.3    92  LYS92       0.1093
     58  NZ        -3.2400  -25.1060    0.0250 N.3    92  LYS92      -0.1314
     59  N         -5.1850  -18.9710    4.2140 N.am   93  VAL93      -0.1980
     60  CA        -5.0270  -18.2490    5.4850 C.3    93  VAL93       0.1595
     61  C         -5.8540  -16.9720    5.4670 C.2    93  VAL93       0.2287
     62  O         -6.0190  -16.3740    4.4060 O.2    93  VAL93      -0.2864
     63  CB        -3.5250  -18.0020    5.8400 C.3    93  VAL93       0.0276
     64  CG1       -2.9110  -16.9430    4.9240 C.3    93  VAL93       0.0022
     65  CG2       -3.3680  -17.6370    7.3310 C.3    93  VAL93       0.0022
     66  N         -4.9010  -12.0470    8.8760 N.3    97  SER97      -0.1202
     67  CA        -3.7100  -12.5220    9.6080 C.3    97  SER97       0.2020
     68  C         -2.5240  -11.6010    9.2670 C.2    97  SER97       0.2619
     69  O         -1.6710  -11.3400   10.1250 O.2    97  SER97      -0.2717
     70  CB        -3.3620  -13.9860    9.2710 C.3    97  SER97       0.2103
     71  OG        -2.9410  -14.1260    7.9130 O.3    97  SER97      -0.2182
     72  N         -2.4680  -11.1280    8.0180 N.am   98  CYS98      -0.1969
     73  CA        -1.4300  -10.1660    7.6230 C.3    98  CYS98       0.1712
     74  C         -1.9070   -8.7150    7.7070 C.2    98  CYS98       0.2296
     75  O         -1.2520   -7.8850    8.3120 O.2    98  CYS98      -0.2864
     76  CB        -0.9230  -10.4300    6.2110 C.3    98  CYS98       0.0983
     77  SG         0.0540  -11.9610    6.1000 S.3    98  CYS98      -0.0798
     78  N          9.2990   -8.3410    4.8590 N.3   116  ARG116     -0.1245
     79  CA         8.3710   -8.9630    3.9260 C.3   116  ARG116      0.1563
     80  C          8.7230  -10.4300    3.6600 C.2   116  ARG116      0.2260
     81  O          7.9370  -11.1380    3.0590 O.2   116  ARG116     -0.2867
     82  CB         8.2970   -8.1700    2.6230 C.3   116  ARG116      0.0307
     83  CG         6.8840   -8.0680    2.0890 C.3   116  ARG116      0.0489
     84  CD         6.8080   -7.2580    0.8020 C.3   116  ARG116      0.2205
     85  NE         7.3230   -5.9110    1.0050 N.pl3 116  ARG116     -0.0865
     86  CZ         8.5130   -5.4890    0.5900 C.cat 116  ARG116      0.5346
     87  NH1        9.3290   -6.3090   -0.0750 N.pl3 116  ARG116      0.1354
     88  NH2        8.8930   -4.2430    0.8440 N.pl3 116  ARG116      0.1354
     89  N          7.8950  -12.3520    7.6600 N.3   119  ILE119     -0.1231
     90  CA         6.5030  -12.7960    7.9240 C.3   119  ILE119      0.1692
     91  C          6.2980  -14.2400    7.4840 C.2   119  ILE119      0.2592
     92  O          5.5960  -14.9720    8.1460 O.2   119  ILE119     -0.2718
     93  CB         5.3890  -11.8610    7.3270 C.3   119  ILE119      0.0266
     94  CG1        5.5950  -11.6160    5.8300 C.3   119  ILE119      0.0019
     95  CG2        5.3530  -10.5400    8.0830 C.3   119  ILE119      0.0020
     96  CD1        4.3860  -10.8720    5.1440 C.3   119  ILE119      0.0001
     97  N          6.9240  -14.6350    6.3730 N.am  120  CYS120     -0.1970
     98  CA         6.8240  -15.9990    5.8490 C.3   120  CYS120      0.1712
     99  C          7.3970  -16.9870    6.8400 C.2   120  CYS120      0.2296
    100  O          6.7800  -18.0160    7.1450 O.2   120  CYS120     -0.2864
    101  CB         7.6310  -16.1320    4.5450 C.3   120  CYS120      0.0983
    102  SG         7.4340  -14.7330    3.3730 S.3   120  CYS120     -0.0798
    103  N          5.2840  -17.1950   10.2940 N.3   123  CYS123     -0.1221
    104  CA         4.0410  -17.9550   10.2870 C.3   123  CYS123      0.1808
    105  C          4.2270  -19.4160    9.8900 C.2   123  CYS123      0.2601
    106  O          3.6580  -20.3090   10.5340 O.2   123  CYS123     -0.2717
    107  CB         2.9670  -17.2750    9.4730 C.3   123  CYS123      0.0970
    108  SG         1.3860  -18.1660    9.5660 S.3   123  CYS123     -0.0800
    109  N          5.0580  -19.6750    8.8840 N.am  124  HIS124     -0.1975
    110  CA         5.3110  -21.0620    8.4970 C.3   124  HIS124      0.1656
    111  C          5.9980  -21.8480    9.6310 C.2   124  HIS124      0.2291
    112  O          5.6400  -22.9950    9.8730 O.2   124  HIS124     -0.2864
    113  CB         5.9930  -21.1480    7.1290 C.3   124  HIS124      0.0771
    114  CG         5.0210  -20.9700    6.0040 C.ar  124  HIS124      0.0820
    115  ND1        4.4250  -22.0410    5.3750 N.ar  124  HIS124     -0.2267
    116  CD2        4.4610  -19.8520    5.4700 C.ar  124  HIS124      0.1154
    117  CE1        3.5700  -21.5910    4.4660 C.ar  124  HIS124      0.1986
    118  NE2        3.5750  -20.2670    4.5030 N.ar  124  HIS124     -0.2212
    119  N          3.3800  -22.8040   12.1720 N.3   127  GLN127     -0.1245
    120  CA         2.5970  -23.9470   11.6700 C.3   127  GLN127      0.1566
    121  C          3.2850  -25.2790   11.9940 C.2   127  GLN127      0.2260
    122  O          2.6160  -26.3010   12.1950 O.2   127  GLN127     -0.2867
    123  CB         2.4210  -23.8390   10.1560 C.3   127  GLN127      0.0367
    124  CG         1.4940  -22.6790    9.7490 C.3   127  GLN127      0.0905
    125  CD         1.4240  -22.5570    8.2530 C.2   127  GLN127      0.2608
    126  OE1        1.1560  -23.5350    7.5550 O.2   127  GLN127     -0.2717
    127  NE2        1.7180  -21.3630    7.7430 N.am  127  GLN127     -0.0878
    128  N         -2.3250  -24.1390   15.9670 N.3   133  PHE133     -0.1241
    129  CA        -2.3680  -23.2370   14.8130 C.3   133  PHE133      0.1605
    130  C         -3.7200  -23.3390   14.1190 C.2   133  PHE133      0.2264
    131  O         -4.1960  -24.4410   13.8400 O.2   133  PHE133     -0.2867
    132  CB        -1.2660  -23.5520   13.7950 C.3   133  PHE133      0.0534
    133  CG        -1.2340  -22.5780   12.6460 C.ar  133  PHE133     -0.0203
    134  CD1       -0.5820  -21.3500   12.7790 C.ar  133  PHE133     -0.0042
    135  CD2       -1.9070  -22.8580   11.4550 C.ar  133  PHE133     -0.0042
    136  CE1       -0.5750  -20.4130   11.7350 C.ar  133  PHE133     -0.0003
    137  CE2       -1.9280  -21.9120   10.4060 C.ar  133  PHE133     -0.0003
    138  CZ        -1.2560  -20.6930   10.5530 C.ar  133  PHE133     -0.0000
    139  N         -5.6010  -21.4980   10.7620 N.3   135  PRO135     -0.2116
    140  CA        -5.4190  -20.5490    9.6550 C.3   135  PRO135      0.1372
    141  C         -6.5360  -19.4940    9.5720 C.2   135  PRO135      0.2244
    142  O         -6.3510  -18.4380    8.9210 O.2   135  PRO135     -0.2868
    143  CB        -5.3960  -21.4570    8.4190 C.3   135  PRO135      0.0268
    144  CG        -6.2250  -22.6160    8.8070 C.3   135  PRO135      0.0207
    145  CD        -5.8660  -22.8600   10.2650 C.3   135  PRO135      0.0892
    146  N         -5.0250  -16.1140   13.3310 N.3   138  VAL138     -0.1245
    147  CA        -3.5940  -16.1250   13.6000 C.3   138  VAL138      0.1561
    148  C         -3.1790  -14.8160   14.2850 C.2   138  VAL138      0.2260
    149  O         -3.1880  -13.7670   13.6530 O.2   138  VAL138     -0.2867
    150  CB        -2.7590  -16.3130   12.2910 C.3   138  VAL138      0.0252
    151  CG1       -1.2860  -16.3670   12.6320 C.3   138  VAL138      0.0019
    152  CG2       -3.1710  -17.6070   11.5470 C.3   138  VAL138      0.0019
    153  N          1.3560  -12.0870   14.0040 N.3   141  LEU141     -0.1245
    154  CA         1.8950  -10.8730   13.4330 C.3   141  LEU141      0.1561
    155  C          1.3270   -9.6150   14.0900 C.2   141  LEU141      0.2260
    156  O          1.7500   -8.5140   13.7590 O.2   141  LEU141     -0.2867
    157  CB         1.6940  -10.8510   11.9070 C.3   141  LEU141      0.0270
    158  CG         2.2010  -12.0600   11.1020 C.3   141  LEU141      0.0019
    159  CD1        2.0410  -11.8080    9.5840 C.3   141  LEU141      0.0001
    160  CD2        3.6540  -12.4070   11.4420 C.3   141  LEU141      0.0001
@<TRIPOS>BOND
     1    20    18   ar
     2    20    21   ar
     3    18    17   ar
     4    21    23   ar
     5    21    19   ar
     6    17    16    1
     7    17    19   ar
     8    23    25   ar
     9    16    13    1
    10    19    22   ar
    11    13    12    1
    12    13    14    1
    13     1     2    1
    14    12     3   am
    15    25    24   ar
    16    15    14    2
    17    22    24   ar
    18    14    26   am
    19     3     2    1
    20     3     4    2
    21     2     5    1
    22    38    37    1
    23    33    34    1
    24    26    32    1
    25    26    27    1
    26     5     6    1
    27    32    31    1
    28    34    37    1
    29    34    35    1
    30    27    28    1
    31    27    30    1
    32    37    39    1
    33    28    29    2
    34     7     6   ar
    35     7     9   ar
    36     6     8   ar
    37    31    30    1
    38    35    40   am
    39    35    36    2
    40     9    11   ar
    41    40    41    1
    42     8    10   ar
    43    87    86    1
    44    11    10   ar
    45    58    57    1
    46    42    41    1
    47    42    43    2
    48    41    44    1
    49    57    56    1
    50    86    88    1
    51    86    85    2
    52    84    85    1
    53    84    83    1
    54    46    48   ar
    55    46    45   ar
    56    55    56    1
    57    55    54    1
    58    44    45    1
    59    48    49   ar
    60    45    47   ar
    61    50    51    1
    62    83    82    1
    63    54    51    1
    64    49    47   ar
    65    82    79    1
    66    51    52    1
    67    81    80    2
    68   102   101    1
    69    80    79    1
    70    79    78    1
    71    59    52   am
    72    59    60    1
    73    52    53    2
    74    62    61    2
    75   117   118   ar
    76   117   115   ar
    77   118   116   ar
    78   101    98    1
    79    64    63    1
    80    96    94    1
    81   115   114   ar
    82    61    60    1
    83   116   114   ar
    84    60    63    1
    85    94    93    1
    86    63    65    1
    87    98    97    1
    88    98    99    1
    89   114   113    1
    90    77    76    1
    91    76    73    1
    92    97    91   am
    93    99   100    2
    94   113   110    1
    95    93    90    1
    96    93    95    1
    97    91    90    1
    98    91    92    2
    99   126   125    2
   100    73    74    1
   101    73    72    1
   102    89    90    1
   103    74    75    2
   104   127   125   am
   105    71    70    1
   106    72    68   am
   107   125   124    1
   108   143   144    1
   109   143   140    1
   110   110   109    1
   111   110   111    1
   112   144   145    1
   113    66    67    1
   114   109   105   am
   115   142   141    2
   116    68    67    1
   117    68    69    2
   118    70    67    1
   119   107   108    1
   120   107   104    1
   121   141   140    1
   122   159   158    1
   123   111   112    2
   124   140   139    1
   125   124   123    1
   126   105   104    1
   127   105   106    2
   128   123   120    1
   129   145   139    1
   130   104   103    1
   131   137   138   ar
   132   137   135   ar
   133   138   136   ar
   134   158   160    1
   135   158   157    1
   136   135   133   ar
   137   152   150    1
   138   120   121    1
   139   120   119    1
   140   136   134   ar
   141   157   154    1
   142   121   122    2
   143   150   151    1
   144   150   147    1
   145   133   134   ar
   146   133   132    1
   147   146   147    1
   148   154   153    1
   149   154   155    1
   150   147   148    1
   151   149   148    2
   152   156   155    2
   153   132   129    1
   154   131   130    2
   155   130   129    1
   156   129   128    1
