@<TRIPOS>MOLECULE
tmp/2p0bA02.pdb
 187 179 0 0 0
SMALL
GASTEIGER

@<TRIPOS>ATOM
      1  N         -7.0860    2.9560    4.9960 N.3    20  LYS20      -0.1231
      2  CA        -7.3240    3.3280    3.6040 C.3    20  LYS20       0.1693
      3  C         -8.8150    3.1840    3.2690 C.2    20  LYS20       0.2592
      4  O         -9.3560    4.0000    2.5250 O.2    20  LYS20      -0.2718
      5  CB        -6.4950    2.3830    2.7170 C.3    20  LYS20       0.0285
      6  CG        -6.0150    2.8550    1.3230 C.3    20  LYS20       0.0035
      7  CD        -6.8260    3.9310    0.6590 C.3    20  LYS20       0.0206
      8  CE        -6.5510    3.9730   -0.8460 C.3    20  LYS20       0.1093
      9  NZ        -5.2320    4.5640   -1.1870 N.3    20  LYS20      -0.1314
     10  N         -9.5000    2.1760    3.8180 N.am   21  HIS21      -0.1976
     11  CA       -10.9050    1.9810    3.4370 C.3    21  HIS21       0.1656
     12  C        -11.8270    3.1270    3.8870 C.2    21  HIS21       0.2291
     13  O        -12.9310    3.2550    3.3810 O.2    21  HIS21      -0.2864
     14  CB       -11.4420    0.6140    3.8840 C.3    21  HIS21       0.0771
     15  CG       -10.8110   -0.5430    3.1700 C.ar   21  HIS21       0.0820
     16  ND1       -9.6930   -1.1890    3.6550 N.ar   21  HIS21      -0.2267
     17  CD2      -11.1440   -1.1780    2.0160 C.ar   21  HIS21       0.1154
     18  CE1       -9.3620   -2.1720    2.8330 C.ar   21  HIS21       0.1986
     19  NE2      -10.2330   -2.1960    1.8390 N.ar   21  HIS21      -0.2212
     20  N        -12.1460    5.4600    0.5440 N.3    24  VAL24      -0.1231
     21  CA       -12.3150    4.8620   -0.7950 C.3    24  VAL24       0.1692
     22  C        -13.7810    4.7200   -1.2090 C.2    24  VAL24       0.2592
     23  O        -14.6900    4.7220   -0.3650 O.2    24  VAL24      -0.2718
     24  CB       -11.6210    3.4790   -0.9160 C.3    24  VAL24       0.0266
     25  CG1      -10.1450    3.5870   -0.5910 C.3    24  VAL24       0.0020
     26  CG2      -12.2790    2.4630   -0.0100 C.3    24  VAL24       0.0020
     27  N        -14.0070    4.5660   -2.5120 N.am   25  ILE25      -0.1966
     28  CA       -15.3560    4.3450   -3.0250 C.3    25  ILE25       0.1727
     29  C        -15.5690    2.8590   -3.2640 C.2    25  ILE25       0.2616
     30  O        -14.6850    2.1900   -3.7910 O.2    25  ILE25      -0.2715
     31  CB       -15.6100    5.1520   -4.3510 C.3    25  ILE25       0.0290
     32  CG1      -15.6410    6.6640   -4.0770 C.3    25  ILE25       0.0022
     33  CG2      -16.8840    4.6950   -5.0480 C.3    25  ILE25       0.0023
     34  CD1      -16.7590    7.1340   -3.1160 C.3    25  ILE25       0.0001
     35  N        -16.7330    2.3570   -2.8730 N.am   26  ASN26      -0.1959
     36  CA       -17.1690    0.9960   -3.1970 C.3    26  ASN26       0.1804
     37  C        -17.3830    0.8780   -4.7080 C.2    26  ASN26       0.2463
     38  O        -18.2760    1.5270   -5.2600 O.2    26  ASN26      -0.2730
     39  CB       -18.4710    0.6910   -2.4430 C.3    26  ASN26       0.1195
     40  CG       -18.9680   -0.7320   -2.6280 C.2    26  ASN26       0.2630
     41  OD1      -18.6500   -1.4110   -3.6110 O.2    26  ASN26      -0.2716
     42  ND2      -19.7750   -1.1890   -1.6830 N.am   26  ASN26      -0.0877
     43  N        -16.5770    0.0420   -5.3860 N.am   27  PRO27      -0.2716
     44  CA       -16.6970   -0.0040   -6.8550 C.3    27  PRO27       0.1536
     45  C        -18.0230   -0.5900   -7.3360 C.2    27  PRO27       0.2598
     46  O        -18.3850   -0.4300   -8.5170 O.2    27  PRO27      -0.2715
     47  CB       -15.5200   -0.8940   -7.2810 C.3    27  PRO27       0.0310
     48  CG       -15.2280   -1.7280   -6.1040 C.3    27  PRO27       0.0237
     49  CD       -15.5470   -0.8900   -4.8850 C.3    27  PRO27       0.0939
     50  N        -18.7470   -1.2500   -6.4350 N.am   28  ASN28      -0.1973
     51  CA       -19.9860   -1.9230   -6.8020 C.3    28  ASN28       0.1688
     52  C        -21.1880   -0.9830   -6.8870 C.2    28  ASN28       0.2292
     53  O        -22.1580   -1.2800   -7.5820 O.2    28  ASN28      -0.2864
     54  CB       -20.2990   -3.0510   -5.8120 C.3    28  ASN28       0.1181
     55  CG       -19.2060   -4.1120   -5.7630 C.2    28  ASN28       0.2629
     56  OD1      -18.8720   -4.6480   -4.6870 O.2    28  ASN28      -0.2716
     57  ND2      -18.6290   -4.4020   -6.9120 N.am   28  ASN28      -0.0877
     58  N        -17.3790    3.3350    1.1010 N.3    33  VAL33      -0.1245
     59  CA       -17.3990    2.0120    1.7130 C.3    33  VAL33       0.1561
     60  C        -17.9900    2.1360    3.1210 C.2    33  VAL33       0.2260
     61  O        -17.6350    3.0630    3.8480 O.2    33  VAL33      -0.2867
     62  CB       -15.9790    1.3860    1.7430 C.3    33  VAL33       0.0252
     63  CG1      -15.9590    0.0890    2.5550 C.3    33  VAL33       0.0019
     64  CG2      -15.5070    1.1140    0.3130 C.3    33  VAL33       0.0019
     65  N        -20.4530   -3.4230    4.1250 N.3    37  ASN37      -0.1225
     66  CA       -19.7850   -3.8870    2.9190 C.3    37  ASN37       0.1785
     67  C        -18.7340   -4.9730    3.2300 C.2    37  ASN37       0.2597
     68  O        -18.4060   -5.7740    2.3490 O.2    37  ASN37      -0.2718
     69  CB       -19.1090   -2.7220    2.1700 C.3    37  ASN37       0.1169
     70  CG       -20.1150   -1.7180    1.5720 C.2    37  ASN37       0.2627
     71  OD1      -19.7530   -0.5600    1.3170 O.2    37  ASN37      -0.2716
     72  ND2      -21.3590   -2.1480    1.3490 N.am   37  ASN37      -0.0877
     73  N        -18.1740   -4.9500    4.4520 N.am   38  CYS38      -0.1970
     74  CA       -17.2580   -6.0120    4.9110 C.3    38  CYS38       0.1712
     75  C        -17.8590   -6.9860    5.9200 C.2    38  CYS38       0.2296
     76  O        -17.5160   -8.1620    5.9200 O.2    38  CYS38      -0.2864
     77  CB       -15.9650   -5.4380    5.4780 C.3    38  CYS38       0.0983
     78  SG       -15.0260   -4.5350    4.2240 S.3    38  CYS38      -0.0798
     79  N        -13.3510  -11.1680   11.1230 N.3    56  PHE56      -0.1241
     80  CA       -12.0880  -11.4430   10.4300 C.3    56  PHE56       0.1605
     81  C        -10.9690  -11.8450   11.3960 C.2    56  PHE56       0.2264
     82  O        -10.8380  -11.2510   12.4670 O.2    56  PHE56      -0.2867
     83  CB       -11.6740  -10.2180    9.6050 C.3    56  PHE56       0.0534
     84  CG       -12.6890   -9.8480    8.5660 C.ar   56  PHE56      -0.0203
     85  CD1      -12.7870  -10.6000    7.3970 C.ar   56  PHE56      -0.0042
     86  CD2      -13.5580   -8.7670    8.7720 C.ar   56  PHE56      -0.0042
     87  CE1      -13.7370  -10.2750    6.4150 C.ar   56  PHE56      -0.0003
     88  CE2      -14.5190   -8.4160    7.7960 C.ar   56  PHE56      -0.0003
     89  CZ       -14.6050   -9.1890    6.6170 C.ar   56  PHE56      -0.0000
     90  N        -15.3380  -12.3420    1.2140 N.3    69  VAL69      -0.1231
     91  CA       -15.9090  -11.0050    1.3700 C.3    69  VAL69       0.1692
     92  C        -15.0150   -9.9760    0.6600 C.2    69  VAL69       0.2592
     93  O        -15.4980   -9.1410   -0.0840 O.2    69  VAL69      -0.2718
     94  CB       -16.0570  -10.6070    2.8500 C.3    69  VAL69       0.0266
     95  CG1      -16.4800   -9.1490    2.9270 C.3    69  VAL69       0.0020
     96  CG2      -17.0870  -11.5300    3.5620 C.3    69  VAL69       0.0020
     97  N        -13.7080  -10.0690    0.9010 N.am   70  CYS70      -0.1970
     98  CA       -12.7330   -9.1930    0.2380 C.3    70  CYS70       0.1712
     99  C        -12.8770   -9.2230   -1.2710 C.2    70  CYS70       0.2296
    100  O        -12.7010   -8.1920   -1.9140 O.2    70  CYS70      -0.2864
    101  CB       -11.3010   -9.5600    0.6390 C.3    70  CYS70       0.0983
    102  SG       -11.1030   -9.7200    2.4380 S.3    70  CYS70      -0.0798
    103  N        -15.5090   -9.6310   -3.0420 N.3    72  SER72      -0.1202
    104  CA       -16.6660   -8.9100   -3.5810 C.3    72  SER72       0.2020
    105  C        -16.2240   -7.5660   -4.1980 C.2    72  SER72       0.2619
    106  O        -16.9800   -6.9560   -4.9540 O.2    72  SER72      -0.2717
    107  CB       -17.7630   -8.6940   -2.5290 C.3    72  SER72       0.2103
    108  OG       -17.3610   -7.7220   -1.5740 O.3    72  SER72      -0.2182
    109  N        -15.0080   -7.1110   -3.8630 N.am   73  CYS73      -0.1955
    110  CA       -14.4360   -5.8810   -4.4610 C.3    73  CYS73       0.1843
    111  C        -13.1050   -6.0760   -5.1590 C.2    73  CYS73       0.2625
    112  O        -12.8930   -5.5110   -6.2340 O.2    73  CYS73      -0.2714
    113  CB       -14.2620   -4.7730   -3.4210 C.3    73  CYS73       0.0997
    114  SG       -15.8320   -4.1260   -2.8300 S.3    73  CYS73      -0.0797
    115  N        -12.2190   -6.8530   -4.5430 N.am   74  HIS74      -0.1973
    116  CA       -10.8550   -7.0280   -5.0410 C.3    74  HIS74       0.1656
    117  C        -10.8020   -8.0550   -6.1450 C.2    74  HIS74       0.2291
    118  O        -11.6890   -8.9160   -6.2520 O.2    74  HIS74      -0.2864
    119  CB        -9.9120   -7.3580   -3.8770 C.3    74  HIS74       0.0771
    120  CG        -9.6650   -6.1780   -3.0060 C.ar   74  HIS74       0.0820
    121  ND1       -8.8520   -5.1410   -3.4010 N.ar   74  HIS74      -0.2267
    122  CD2      -10.1920   -5.8140   -1.8120 C.ar   74  HIS74       0.1154
    123  CE1       -8.8650   -4.1980   -2.4760 C.ar   74  HIS74       0.1986
    124  NE2       -9.6560   -4.5870   -1.4960 N.ar   74  HIS74      -0.2212
    125  N         -4.3020   -8.6120   -7.3280 N.3    79  LEU79      -0.1245
    126  CA        -3.5160   -8.9380   -6.1190 C.3    79  LEU79       0.1561
    127  C         -2.1680   -9.6000   -6.4820 C.2    79  LEU79       0.2260
    128  O         -1.1580   -9.3280   -5.8410 O.2    79  LEU79      -0.2867
    129  CB        -4.3200   -9.8110   -5.1710 C.3    79  LEU79       0.0270
    130  CG        -5.6410   -9.2130   -4.6560 C.3    79  LEU79       0.0019
    131  CD1       -6.2300  -10.1820   -3.6220 C.3    79  LEU79       0.0001
    132  CD2       -5.5390   -7.8090   -4.0640 C.3    79  LEU79       0.0001
    133  N         -7.0220  -13.3190    5.2680 N.3    95  CYS95      -0.1221
    134  CA        -6.3530  -12.0900    4.7920 C.3    95  CYS95       0.1808
    135  C         -5.9110  -11.2330    5.9810 C.2    95  CYS95       0.2601
    136  O         -4.8420  -10.6220    5.9390 O.2    95  CYS95      -0.2717
    137  CB        -7.2960  -11.2120    3.9580 C.3    95  CYS95       0.0970
    138  SG        -8.0610  -11.9910    2.5700 S.3    95  CYS95      -0.0800
    139  N         -6.7620  -11.1510    7.0150 N.am   96  ALA96      -0.1979
    140  CA        -6.4570  -10.2770    8.1520 C.3    96  ALA96       0.1597
    141  C         -5.4360  -10.8490    9.1500 C.2    96  ALA96       0.2287
    142  O         -5.1160  -10.1880   10.1530 O.2    96  ALA96      -0.2864
    143  CB        -7.7440   -9.8370    8.8750 C.3    96  ALA96       0.0319
    144  N         -3.0170   -8.4140    7.0430 N.3    99  HIS99      -0.1241
    145  CA        -3.4710   -7.0360    6.9520 C.3    99  HIS99       0.1621
    146  C         -4.1930   -6.6070    8.2120 C.2    99  HIS99       0.2264
    147  O         -4.8690   -7.4240    8.8320 O.2    99  HIS99      -0.2867
    148  CB        -4.4120   -6.8850    5.7560 C.3    99  HIS99       0.0745
    149  CG        -3.6990   -6.9770    4.4450 C.ar   99  HIS99       0.0817
    150  ND1       -2.8330   -6.0000    4.0130 N.ar   99  HIS99      -0.2268
    151  CD2       -3.6660   -7.9580    3.5140 C.ar   99  HIS99       0.1154
    152  CE1       -2.3310   -6.3550    2.8350 C.ar   99  HIS99       0.1986
    153  NE2       -2.8250   -7.5380    2.5130 N.ar   99  HIS99      -0.2212
    154  N         -6.8470   -3.5280    8.9250 N.3   101  LEU101     -0.1245
    155  CA        -7.5810   -2.5440    8.1300 C.3   101  LEU101      0.1561
    156  C         -8.1670   -1.3760    8.9150 C.2   101  LEU101      0.2260
    157  O         -8.3670   -0.3020    8.3460 O.2   101  LEU101     -0.2867
    158  CB        -8.6570   -3.2210    7.2660 C.3   101  LEU101      0.0270
    159  CG        -8.2000   -4.3260    6.3020 C.3   101  LEU101      0.0019
    160  CD1       -9.4020   -4.7210    5.4140 C.3   101  LEU101      0.0001
    161  CD2       -7.0060   -3.8120    5.4460 C.3   101  LEU101      0.0001
    162  N         -2.8770    3.0210    9.7530 N.3   105  GLN105     -0.1231
    163  CA        -1.9940    2.4460    8.7260 C.3   105  GLN105      0.1698
    164  C         -2.0120    0.9260    8.8220 C.2   105  GLN105      0.2592
    165  O         -2.2180    0.3680    9.9050 O.2   105  GLN105     -0.2718
    166  CB        -0.5480    2.9900    8.8240 C.3   105  GLN105      0.0381
    167  CG         0.2510    2.5000   10.0420 C.3   105  GLN105      0.0905
    168  CD         1.7730    2.3680    9.8250 C.2   105  GLN105      0.2608
    169  OE1        2.3390    2.8540    8.8400 O.2   105  GLN105     -0.2717
    170  NE2        2.4380    1.7070   10.7740 N.am  105  GLN105     -0.0878
    171  N         -1.8200    0.2650    7.6730 N.am  106  ASP106     -0.1974
    172  CA        -1.7530   -1.2000    7.5750 C.3   106  ASP106      0.1709
    173  C         -0.2770   -1.5890    7.5160 C.2   106  ASP106      0.2293
    174  O          0.4270   -1.2430    6.5530 O.2   106  ASP106     -0.2864
    175  CB        -2.4470   -1.6490    6.2770 C.3   106  ASP106      0.1436
    176  CG        -2.2110   -3.1160    5.9370 C.2   106  ASP106      0.3671
    177  OD1       -1.9110   -3.9200    6.8340 O.co2 106  ASP106     -0.2456
    178  OD2       -2.3540   -3.4440    4.7400 O.co2 106  ASP106     -0.2456
    179  N          1.8060   -2.5400    4.3360 N.3   109  GLN109     -0.1245
    180  CA         2.1480   -1.5840    3.2740 C.3   109  GLN109      0.1566
    181  C          3.5120   -0.9460    3.5060 C.2   109  GLN109      0.2260
    182  O          4.1000   -0.3940    2.5800 O.2   109  GLN109     -0.2867
    183  CB         1.0800   -0.4940    3.1500 C.3   109  GLN109      0.0367
    184  CG        -0.3510   -1.0300    3.0010 C.3   109  GLN109      0.0905
    185  CD        -0.5030   -1.9620    1.8150 C.2   109  GLN109      0.2608
    186  OE1       -0.0060   -1.6800    0.7190 O.2   109  GLN109     -0.2717
    187  NE2       -1.1920   -3.0810    2.0220 N.am  109  GLN109     -0.0878
@<TRIPOS>BOND
     1    46    45    2
     2    53    52    2
     3    45    44    1
     4    45    50   am
     5   125   126    1
     6    47    44    1
     7    47    48    1
     8    57    55   am
     9    52    51    1
    10    44    43    1
    11    51    50    1
    12    51    54    1
    13   127   126    1
    14   127   128    2
    15   118   117    2
    16   112   111    2
    17   117   116    1
    18   126   129    1
    19    48    49    1
    20    54    55    1
    21    55    56    2
    22    43    49    1
    23    43    37   am
    24    38    37    2
    25   129   130    1
    26   111   115   am
    27   111   110    1
    28    33    31    1
    29   116   115    1
    30   116   119    1
    31   106   105    2
    32    37    36    1
    33   130   132    1
    34   130   131    1
    35   110   109    1
    36   110   113    1
    37    31    32    1
    38    31    28    1
    39   105   109   am
    40   105   104    1
    41    32    34    1
    42   119   120    1
    43    30    29    2
    44    41    40    2
    45   104   103    1
    46   104   107    1
    47   113   114    1
    48   121   120   ar
    49   121   123   ar
    50    29    28    1
    51    29    35   am
    52    36    35    1
    53    36    39    1
    54    28    27    1
    55   120   122   ar
    56    40    39    1
    57    40    42   am
    58   107   108    1
    59    27    22   am
    60   123   124   ar
    61   100    99    2
    62   122   124   ar
    63    99    98    1
    64    22    21    1
    65    22    23    2
    66     9     8    1
    67    24    21    1
    68    24    25    1
    69    24    26    1
    70     8     7    1
    71    21    20    1
    72    93    92    2
    73    98   101    1
    74    98    97    1
    75    64    62    1
    76   101   102    1
    77     7     6    1
    78    92    97   am
    79    92    91    1
    80   186   185    2
    81    58    59    1
    82    90    91    1
    83    71    70    2
    84     6     5    1
    85    72    70   am
    86    91    94    1
    87    70    69    1
    88    59    62    1
    89    59    60    1
    90    62    63    1
    91   185   187   am
    92   185   184    1
    93    19    17   ar
    94    19    18   ar
    95    17    15   ar
    96    69    66    1
    97    68    67    2
    98   153   152   ar
    99   153   151   ar
   100     4     3    2
   101   138   137    1
   102   182   181    2
   103     5     2    1
   104    18    16   ar
   105   152   150   ar
   106    94    95    1
   107    94    96    1
   108    66    67    1
   109    66    65    1
   110   184   183    1
   111    60    61    2
   112   183   180    1
   113    15    16   ar
   114    15    14    1
   115    67    73   am
   116     3     2    1
   117     3    10   am
   118   180   181    1
   119   180   179    1
   120    13    12    2
   121    11    10    1
   122    11    14    1
   123    11    12    1
   124   151   149   ar
   125     2     1    1
   126   137   134    1
   127   150   149   ar
   128    78    77    1
   129   149   148    1
   130    73    74    1
   131   178   176   ar
   132   134   133    1
   133   134   135    1
   134    74    77    1
   135    74    75    1
   136   160   159    1
   137   161   159    1
   138   148   145    1
   139    75    76    2
   140   176   175    1
   141   176   177   ar
   142   136   135    2
   143   135   139   am
   144   175   172    1
   145   159   158    1
   146    87    89   ar
   147    87    85   ar
   148   174   173    2
   149    89    88   ar
   150   145   144    1
   151   145   146    1
   152   139   140    1
   153   158   155    1
   154    85    84   ar
   155   173   172    1
   156   172   171    1
   157   171   164   am
   158    88    86   ar
   159   155   156    1
   160   155   154    1
   161   140   143    1
   162   140   141    1
   163   146   147    2
   164   157   156    2
   165    84    86   ar
   166    84    83    1
   167   163   164    1
   168   163   166    1
   169   163   162    1
   170   164   165    2
   171   166   167    1
   172   169   168    2
   173   141   142    2
   174    83    80    1
   175   168   167    1
   176   168   170   am
   177    80    79    1
   178    80    81    1
   179    81    82    2
