@<TRIPOS>MOLECULE
tmp/2p0cB00.pdb
 148 140 0 0 0
SMALL
GASTEIGER

@<TRIPOS>ATOM
      1  N         -9.7420  -18.7900  -14.0030 N.3    19  LEU19      -0.1231
      2  CA        -8.4700  -18.0650  -14.0480 C.3    19  LEU19       0.1693
      3  C         -8.6430  -16.6730  -14.6580 C.2    19  LEU19       0.2593
      4  O         -7.9460  -15.7250  -14.2890 O.2    19  LEU19      -0.2718
      5  CB        -7.4320  -18.8490  -14.8560 C.3    19  LEU19       0.0284
      6  CG        -7.0190  -20.2510  -14.3830 C.3    19  LEU19       0.0019
      7  CD1       -5.9850  -20.8470  -15.3240 C.3    19  LEU19       0.0001
      8  CD2       -6.4920  -20.2520  -12.9480 C.3    19  LEU19       0.0001
      9  N         -9.5720  -16.5670  -15.6030 N.am   20  GLY20      -0.1942
     10  CA        -9.9090  -15.3060  -16.2400 C.3    20  GLY20       0.2014
     11  C        -11.2220  -15.4180  -16.9900 C.2    20  GLY20       0.2638
     12  O        -11.6470  -16.5150  -17.3520 O.2    20  GLY20      -0.2714
     13  N        -11.8610  -14.2750  -17.2180 N.am   21  GLU21      -0.1977
     14  CA       -13.1420  -14.2140  -17.9270 C.3    21  GLU21       0.1602
     15  C        -13.2520  -12.9060  -18.6990 C.2    21  GLU21       0.2287
     16  O        -12.2380  -12.3490  -19.1250 O.2    21  GLU21      -0.2864
     17  CB       -14.3100  -14.3600  -16.9450 C.3    21  GLU21       0.0415
     18  CG       -15.6660  -14.6250  -17.6000 C.3    21  GLU21       0.1163
     19  CD       -16.6260  -15.3910  -16.6940 C.2    21  GLU21       0.3649
     20  OE1      -16.3570  -15.4940  -15.4740 O.co2  21  GLU21      -0.2457
     21  OE2      -17.6530  -15.8930  -17.2070 O.co2  21  GLU21      -0.2457
     22  N        -11.8740  -18.7960  -18.8960 N.3    24  VAL24      -0.1245
     23  CA       -10.7770  -19.7850  -18.7920 C.3    24  VAL24       0.1561
     24  C        -10.6150  -20.3350  -17.3710 C.2    24  VAL24       0.2260
     25  O        -10.5580  -19.5890  -16.3990 O.2    24  VAL24      -0.2867
     26  CB        -9.4220  -19.2350  -19.3530 C.3    24  VAL24       0.0252
     27  CG1       -9.1210  -17.8780  -18.7880 C.3    24  VAL24       0.0019
     28  CG2       -8.2500  -20.1960  -19.0770 C.3    24  VAL24       0.0019
     29  N         -5.4770  -26.0700  -18.4050 N.3    40  ALA40      -0.1245
     30  CA        -6.2140  -24.8230  -18.5640 C.3    40  ALA40       0.1562
     31  C         -7.3010  -25.0860  -19.5860 C.2    40  ALA40       0.2260
     32  O         -7.0290  -25.6000  -20.6670 O.2    40  ALA40      -0.2867
     33  CB        -5.3040  -23.7290  -19.0430 C.3    40  ALA40       0.0290
     34  N        -10.2680  -23.4450  -21.8770 N.3    42  LYS42      -0.1245
     35  CA       -10.7620  -22.2060  -22.4380 C.3    42  LYS42       0.1561
     36  C        -12.0660  -22.4870  -23.1930 C.2    42  LYS42       0.2260
     37  O        -12.1220  -23.3740  -24.0450 O.2    42  LYS42      -0.2867
     38  CB        -9.6810  -21.5920  -23.3340 C.3    42  LYS42       0.0271
     39  CG        -9.9150  -20.1560  -23.8030 C.3    42  LYS42       0.0035
     40  CD        -8.7150  -19.5400  -24.5050 C.3    42  LYS42       0.0206
     41  CE        -8.6650  -18.0230  -24.3750 C.3    42  LYS42       0.1093
     42  NZ        -7.3490  -17.4130  -24.6960 N.3    42  LYS42      -0.1314
     43  N          2.8550  -24.3680  -27.3870 N.3    62  ILE62      -0.1245
     44  CA         1.9780  -25.1170  -26.4930 C.3    62  ILE62       0.1561
     45  C          1.2030  -26.1710  -27.3060 C.2    62  ILE62       0.2260
     46  O          0.8010  -25.9190  -28.4450 O.2    62  ILE62      -0.2867
     47  CB         1.0370  -24.1790  -25.6870 C.3    62  ILE62       0.0252
     48  CG1        0.5760  -24.8560  -24.3950 C.3    62  ILE62       0.0019
     49  CG2       -0.1540  -23.6960  -26.5460 C.3    62  ILE62       0.0019
     50  CD1       -0.0830  -23.9200  -23.3680 C.3    62  ILE62       0.0001
     51  N         -5.6440  -27.3860  -22.6420 N.3    76  LEU76      -0.1231
     52  CA        -4.2340  -27.0590  -22.7730 C.3    76  LEU76       0.1678
     53  C         -3.4660  -27.4720  -21.5330 C.2    76  LEU76       0.2434
     54  O         -4.0060  -27.4670  -20.4390 O.2    76  LEU76      -0.2733
     55  CB        -4.0480  -25.5510  -23.0280 C.3    76  LEU76       0.0284
     56  CG        -4.8700  -24.9410  -24.1720 C.3    76  LEU76       0.0019
     57  CD1       -5.2690  -23.5260  -23.8180 C.3    76  LEU76       0.0001
     58  CD2       -4.1170  -25.0080  -25.5150 C.3    76  LEU76       0.0001
     59  N         -2.1780  -27.7790  -21.6950 N.am   77  PRO77      -0.2718
     60  CA        -1.3900  -28.0860  -20.5030 C.3    77  PRO77       0.1535
     61  C         -1.4470  -26.8720  -19.5700 C.2    77  PRO77       0.2599
     62  O         -1.4150  -25.7230  -20.0360 O.2    77  PRO77      -0.2715
     63  CB         0.0340  -28.2550  -21.0400 C.3    77  PRO77       0.0310
     64  CG        -0.0950  -28.3650  -22.5360 C.3    77  PRO77       0.0237
     65  CD        -1.3880  -27.7760  -22.9410 C.3    77  PRO77       0.0939
     66  N         -1.5620  -27.1110  -18.2720 N.am   78  PHE78      -0.1960
     67  CA        -1.5190  -26.0120  -17.3280 C.3    78  PHE78       0.1771
     68  C         -0.0640  -25.7040  -16.9690 C.2    78  PHE78       0.2619
     69  O          0.6760  -26.5890  -16.5420 O.2    78  PHE78      -0.2715
     70  CB        -2.3780  -26.2930  -16.0750 C.3    78  PHE78       0.0574
     71  CG        -2.3570  -25.1710  -15.0690 C.ar   78  PHE78      -0.0200
     72  CD1       -3.3750  -24.2220  -15.0430 C.ar   78  PHE78      -0.0042
     73  CD2       -1.2950  -25.0400  -14.1710 C.ar   78  PHE78      -0.0042
     74  CE1       -3.3500  -23.1650  -14.1220 C.ar   78  PHE78      -0.0003
     75  CE2       -1.2640  -23.9920  -13.2480 C.ar   78  PHE78      -0.0003
     76  CZ        -2.2910  -23.0520  -13.2230 C.ar   78  PHE78      -0.0000
     77  N          0.3330  -24.4480  -17.1620 N.am   79  MET79      -0.1977
     78  CA         1.7040  -23.9850  -16.8830 C.3    79  MET79       0.1605
     79  C          1.6890  -23.2730  -15.5540 C.2    79  MET79       0.2287
     80  O          1.1350  -22.1710  -15.4310 O.2    79  MET79      -0.2864
     81  CB         2.1990  -23.0010  -17.9510 C.3    79  MET79       0.0413
     82  CG         2.0190  -23.4720  -19.3900 C.3    79  MET79       0.0598
     83  SD         3.1920  -24.7680  -19.7710 S.3    79  MET79      -0.1393
     84  CE         2.7920  -25.0880  -21.4770 C.3    79  MET79       0.0692
     85  N          2.9380  -19.6370  -15.2110 N.3    82  GLY82      -0.1210
     86  CA         2.0710  -18.6000  -15.7560 C.3    82  GLY82       0.1956
     87  C          2.6330  -17.9770  -17.0150 C.2    82  GLY82       0.2611
     88  O          3.5500  -18.5150  -17.6390 O.2    82  GLY82      -0.2717
     89  N          2.0860  -16.8230  -17.3770 N.am   83  ASP83      -0.1973
     90  CA         2.4880  -16.1070  -18.5760 C.3    83  ASP83       0.1709
     91  C          3.7680  -15.2680  -18.3690 C.2    83  ASP83       0.2293
     92  O          4.1000  -14.8800  -17.2400 O.2    83  ASP83      -0.2864
     93  CB         1.3330  -15.2200  -19.0140 C.3    83  ASP83       0.1436
     94  CG         1.1580  -14.0290  -18.1270 C.2    83  ASP83       0.3671
     95  OD1        0.7270  -14.1690  -16.9710 O.co2  83  ASP83      -0.2456
     96  OD2        1.4670  -12.9320  -18.5840 O.co2  83  ASP83      -0.2456
     97  N          4.4910  -12.1490  -19.4260 N.3    85  HIS85      -0.1226
     98  CA         4.2350  -10.7610  -19.0530 C.3    85  HIS85       0.1752
     99  C          4.2420  -10.5350  -17.5360 C.2    85  HIS85       0.2596
    100  O          4.9490   -9.6560  -17.0410 O.2    85  HIS85      -0.2718
    101  CB         2.9260  -10.2620  -19.6510 C.3    85  HIS85       0.0759
    102  CG         2.7490   -8.7810  -19.5460 C.ar   85  HIS85       0.0818
    103  ND1        2.0100   -8.1910  -18.5490 N.ar   85  HIS85      -0.2268
    104  CD2        3.2250   -7.7710  -20.3080 C.ar   85  HIS85       0.1154
    105  CE1        2.0310   -6.8800  -18.7060 C.ar   85  HIS85       0.1986
    106  NE2        2.7580   -6.6000  -19.7700 N.ar   85  HIS85      -0.2212
    107  N          3.4560  -11.3250  -16.8090 N.am   86  THR86      -0.1953
    108  CA         3.4160  -11.2310  -15.3430 C.3    86  THR86       0.1897
    109  C          4.7780  -11.5810  -14.7130 C.2    86  THR86       0.2313
    110  O          5.1550  -11.0150  -13.6750 O.2    86  THR86      -0.2863
    111  CB         2.3100  -12.1200  -14.7600 C.3    86  THR86       0.1794
    112  OG1        1.1070  -11.9320  -15.5220 O.3    86  THR86      -0.2208
    113  CG2        2.0360  -11.7720  -13.2970 C.3    86  THR86       0.0378
    114  N          1.8220  -11.7180  -22.8320 N.3   132  ARG132     -0.1231
    115  CA         0.8070  -12.3180  -21.9480 C.3   132  ARG132      0.1694
    116  C          0.3280  -13.6480  -22.5170 C.2   132  ARG132      0.2592
    117  O         -0.2440  -14.4710  -21.7970 O.2   132  ARG132     -0.2718
    118  CB        -0.3880  -11.3800  -21.7370 C.3   132  ARG132      0.0321
    119  CG        -1.2550  -11.2200  -22.9670 C.3   132  ARG132      0.0489
    120  CD        -2.4150  -10.2600  -22.7930 C.3   132  ARG132      0.2205
    121  NE        -3.0430  -10.0520  -24.1030 N.pl3 132  ARG132     -0.0865
    122  CZ        -2.6750   -9.1110  -24.9770 C.cat 132  ARG132      0.5346
    123  NH1       -1.7140   -8.2420  -24.6790 N.pl3 132  ARG132      0.1354
    124  NH2       -3.2910   -9.0220  -26.1470 N.pl3 132  ARG132      0.1354
    125  N          0.5750  -13.8480  -23.8120 N.am  133  ASN133     -0.1974
    126  CA         0.1850  -15.0800  -24.4990 C.3   133  ASN133      0.1688
    127  C          1.3310  -16.0420  -24.7030 C.2   133  ASN133      0.2292
    128  O          1.1870  -17.0440  -25.4050 O.2   133  ASN133     -0.2864
    129  CB        -0.5400  -14.7730  -25.8120 C.3   133  ASN133      0.1181
    130  CG        -1.9510  -14.3170  -25.5720 C.2   133  ASN133      0.2629
    131  OD1       -2.4890  -14.5220  -24.4820 O.2   133  ASN133     -0.2716
    132  ND2       -2.5600  -13.6870  -26.5630 N.am  133  ASN133     -0.0877
    133  N          3.7950  -18.5430  -22.6690 N.3   135  MET135     -0.1245
    134  CA         3.7200  -19.2720  -21.4120 C.3   135  MET135      0.1570
    135  C          5.0760  -19.8160  -20.9780 C.2   135  MET135      0.2261
    136  O          5.9230  -20.1480  -21.8130 O.2   135  MET135     -0.2867
    137  CB         2.6580  -20.3700  -21.5000 C.3   135  MET135      0.0387
    138  CG         1.2520  -19.8240  -21.7160 C.3   135  MET135      0.0595
    139  SD         0.7240  -18.7970  -20.3210 S.3   135  MET135     -0.1393
    140  CE        -0.5840  -17.8510  -21.0550 C.3   135  MET135      0.0692
    141  N         -2.2370  -19.4520  -27.2000 N.3   146  ASP146     -0.1239
    142  CA        -3.4120  -18.6550  -27.5570 C.3   146  ASP146      0.1674
    143  C         -3.5060  -18.3360  -29.0530 C.2   146  ASP146      0.2266
    144  O         -4.0860  -17.3290  -29.4540 O.2   146  ASP146     -0.2867
    145  CB        -3.4680  -17.3770  -26.7110 C.3   146  ASP146      0.1410
    146  CG        -3.9750  -17.6300  -25.2960 C.2   146  ASP146      0.3668
    147  OD1       -4.1100  -18.8140  -24.8990 O.co2 146  ASP146     -0.2456
    148  OD2       -4.2290  -16.6410  -24.5690 O.co2 146  ASP146     -0.2456
@<TRIPOS>BOND
     1   144   143    2
     2   143   142    1
     3    46    45    2
     4   142   141    1
     5   142   145    1
     6    43    44    1
     7    45    44    1
     8   145   146    1
     9   132   130   am
    10    49    47    1
    11    44    47    1
    12   124   122    1
    13   129   130    1
    14   129   126    1
    15    47    48    1
    16   130   131    2
    17    58    56    1
    18   128   127    2
    19   146   147   ar
    20   146   148   ar
    21   122   123    1
    22   122   121    2
    23   127   126    1
    24    42    41    1
    25    40    41    1
    26    40    39    1
    27   126   125    1
    28    48    50    1
    29    56    57    1
    30    56    55    1
    31   121   120    1
    32    37    36    2
    33   125   116   am
    34    39    38    1
    35    38    35    1
    36    36    35    1
    37    55    52    1
    38   119   120    1
    39   119   118    1
    40    65    64    1
    41    65    59    1
    42   114   115    1
    43    52    51    1
    44    52    53    1
    45   133   134    1
    46    64    63    1
    47   116   115    1
    48   116   117    2
    49    35    34    1
    50   115   118    1
    51   136   135    2
    52   138   137    1
    53   138   139    1
    54    59    53   am
    55    59    60    1
    56    53    54    2
    57   137   134    1
    58    84    83    1
    59   134   135    1
    60   140   139    1
    61    63    60    1
    62    32    31    2
    63    60    61    1
    64   104   106   ar
    65   104   102   ar
    66    62    61    2
    67    83    82    1
    68   106   105   ar
    69   101   102    1
    70   101    98    1
    71    31    30    1
    72    61    66   am
    73   102   103   ar
    74    97    98    1
    75    82    81    1
    76    26    28    1
    77    26    23    1
    78    26    27    1
    79    16    15    2
    80    98    99    1
    81    33    30    1
    82    93    90    1
    83    93    94    1
    84    22    23    1
    85    23    24    1
    86   105   103   ar
    87    15    14    1
    88    96    94   ar
    89    90    91    1
    90    90    89    1
    91    30    29    1
    92    91    92    2
    93    66    67    1
    94    94    95   ar
    95    81    78    1
    96    14    13    1
    97    14    17    1
    98    88    87    2
    99    18    17    1
   100    18    19    1
   101    99   100    2
   102    99   107   am
   103    89    87   am
   104    24    25    2
   105    12    11    2
   106    67    68    1
   107    67    70    1
   108    13    11   am
   109    21    19   ar
   110    77    68   am
   111    77    78    1
   112    87    86    1
   113    11    10    1
   114    68    69    2
   115    78    79    1
   116   107   108    1
   117    19    20   ar
   118    10     9    1
   119    70    71    1
   120    86    85    1
   121     9     3   am
   122    79    80    2
   123   112   111    1
   124   108   111    1
   125   108   109    1
   126     7     6    1
   127    71    72   ar
   128    71    73   ar
   129    72    74   ar
   130     5     6    1
   131     5     2    1
   132   111   113    1
   133   109   110    2
   134     3     4    2
   135     3     2    1
   136     6     8    1
   137    73    75   ar
   138    74    76   ar
   139     2     1    1
   140    75    76   ar
