@<TRIPOS>MOLECULE
tmp/2p0eA00.pdb
 145 140 0 0 0
SMALL
GASTEIGER

@<TRIPOS>ATOM
      1  N         15.4210  -17.7500   -3.1320 N.3    16  THR16      -0.1218
      2  CA        14.1160  -17.4000   -3.6980 C.3    16  THR16       0.1862
      3  C         14.1190  -17.4540   -5.2530 C.2    16  THR16       0.2287
      4  O         15.1330  -17.1250   -5.8960 O.2    16  THR16      -0.2866
      5  CB        13.6830  -15.9430   -3.2440 C.3    16  THR16       0.1770
      6  OG1       12.3630  -15.6770   -3.7070 O.3    16  THR16      -0.2211
      7  CG2       14.6270  -14.8740   -3.8210 C.3    16  THR16       0.0375
      8  N         12.4770  -24.3340   -6.8890 N.3    20  LYS20      -0.1245
      9  CA        12.4050  -25.4120   -5.8570 C.3    20  LYS20       0.1561
     10  C         11.0840  -26.1920   -5.9020 C.2    20  LYS20       0.2260
     11  O         11.0880  -27.4170   -5.8710 O.2    20  LYS20      -0.2867
     12  CB        12.6250  -24.8310   -4.4390 C.3    20  LYS20       0.0271
     13  CG        13.9820  -24.1870   -4.2540 C.3    20  LYS20       0.0035
     14  CD        14.2090  -23.6490   -2.8370 C.3    20  LYS20       0.0206
     15  CE        13.1980  -22.6650   -2.4000 C.3    20  LYS20       0.1093
     16  NZ        13.2080  -21.3850   -3.2130 N.3    20  LYS20      -0.1314
     17  N          6.7870  -22.7870    2.4680 N.3    40  ASP40      -0.1239
     18  CA         5.9910  -21.5630    2.2390 C.3    40  ASP40       0.1674
     19  C          4.5490  -21.6970    2.7340 C.2    40  ASP40       0.2266
     20  O          3.8520  -20.6960    2.8420 O.2    40  ASP40      -0.2867
     21  CB         5.9470  -21.2030    0.7520 C.3    40  ASP40       0.1410
     22  CG         7.2040  -20.4920    0.2610 C.2    40  ASP40       0.3668
     23  OD1        8.1940  -20.3370    1.0170 O.co2  40  ASP40      -0.2456
     24  OD2        7.1890  -20.0770   -0.9170 O.co2  40  ASP40      -0.2456
     25  N          4.3020  -19.8980    6.8250 N.3    43  PHE43      -0.1227
     26  CA         4.5550  -18.5290    7.3050 C.3    43  PHE43       0.1736
     27  C          3.5510  -18.1280    8.3930 C.2    43  PHE43       0.2595
     28  O          2.3620  -18.4040    8.2700 O.2    43  PHE43      -0.2718
     29  CB         4.5020  -17.5230    6.1650 C.3    43  PHE43       0.0547
     30  CG         5.7800  -17.4320    5.3930 C.ar   43  PHE43      -0.0202
     31  CD1        6.8940  -16.8110    5.9420 C.ar   43  PHE43      -0.0042
     32  CD2        5.8900  -17.9890    4.1270 C.ar   43  PHE43      -0.0042
     33  CE1        8.0900  -16.7310    5.2280 C.ar   43  PHE43      -0.0003
     34  CE2        7.1000  -17.8920    3.4190 C.ar   43  PHE43      -0.0003
     35  CZ         8.1750  -17.2610    3.9740 C.ar   43  PHE43      -0.0000
     36  N          4.0460  -17.4650    9.4330 N.am   44  LYS44      -0.1980
     37  CA         3.1730  -16.8500   10.4520 C.3    44  LYS44       0.1596
     38  C          2.3380  -15.7490    9.8130 C.2    44  LYS44       0.2287
     39  O          2.7240  -15.2050    8.7870 O.2    44  LYS44      -0.2864
     40  CB         3.9950  -16.2840   11.6030 C.3    44  LYS44       0.0298
     41  CG         4.6840  -17.3480   12.4600 C.3    44  LYS44       0.0038
     42  CD         5.6440  -16.7480   13.4650 C.3    44  LYS44       0.0206
     43  CE         6.3760  -17.8210   14.2500 C.3    44  LYS44       0.1093
     44  NZ         7.4850  -17.3140   15.1150 N.3    44  LYS44      -0.1314
     45  N         10.5640  -11.3430    6.7940 N.3    59  TYR59      -0.1227
     46  CA        10.0030  -12.6050    6.3240 C.3    59  TYR59       0.1736
     47  C         11.0530  -13.6780    6.0550 C.2    59  TYR59       0.2595
     48  O         10.7220  -14.8450    6.0860 O.2    59  TYR59      -0.2718
     49  CB         9.1850  -12.4200    5.0600 C.3    59  TYR59       0.0548
     50  CG         7.7560  -12.0420    5.3270 C.ar   59  TYR59      -0.0200
     51  CD1        6.8430  -12.9800    5.8160 C.ar   59  TYR59      -0.0009
     52  CD2        7.3100  -10.7480    5.0860 C.ar   59  TYR59      -0.0009
     53  CE1        5.5130  -12.6370    6.0620 C.ar   59  TYR59       0.0417
     54  CE2        5.9790  -10.3870    5.3180 C.ar   59  TYR59       0.0417
     55  CZ         5.0840  -11.3300    5.8170 C.ar   59  TYR59       0.1957
     56  OH         3.7700  -10.9610    6.0600 O.3    59  TYR59      -0.2866
     57  N         12.3010  -13.2860    5.8010 N.am   60  ASP60      -0.1974
     58  CA        13.3250  -14.2360    5.2790 C.3    60  ASP60       0.1709
     59  C         14.2550  -14.7420    6.4040 C.2    60  ASP60       0.2293
     60  O         15.4910  -14.8380    6.2620 O.2    60  ASP60      -0.2864
     61  CB        14.0980  -13.5910    4.1200 C.3    60  ASP60       0.1436
     62  CG        13.2520  -13.4280    2.8780 C.2    60  ASP60       0.3671
     63  OD1       12.1150  -12.9210    2.9970 O.co2  60  ASP60      -0.2456
     64  OD2       13.7230  -13.7760    1.7690 O.co2  60  ASP60      -0.2456
     65  N         12.9600  -22.3720    1.1220 N.3    97  PHE97      -0.1241
     66  CA        14.1130  -21.4530    1.1030 C.3    97  PHE97       0.1605
     67  C         15.0110  -21.4470    2.3530 C.2    97  PHE97       0.2264
     68  O         16.1070  -20.8850    2.3160 O.2    97  PHE97      -0.2867
     69  CB        13.6290  -20.0230    0.7560 C.3    97  PHE97       0.0534
     70  CG        13.1370  -19.2380    1.9460 C.ar   97  PHE97      -0.0203
     71  CD1       13.8320  -18.1040    2.3730 C.ar   97  PHE97      -0.0042
     72  CD2       11.9900  -19.6260    2.6460 C.ar   97  PHE97      -0.0042
     73  CE1       13.3960  -17.3720    3.5070 C.ar   97  PHE97      -0.0003
     74  CE2       11.5370  -18.8710    3.7410 C.ar   97  PHE97      -0.0003
     75  CZ        12.2380  -17.7700    4.1700 C.ar   97  PHE97      -0.0000
     76  N         12.6900  -12.3320   -9.1790 N.3   126  ARG126     -0.1245
     77  CA        11.8960  -11.9500   -8.0190 C.3   126  ARG126      0.1563
     78  C         10.8690  -10.8660   -8.4290 C.2   126  ARG126      0.2260
     79  O          9.6950  -10.9080   -8.0220 O.2   126  ARG126     -0.2867
     80  CB        12.8120  -11.4740   -6.8940 C.3   126  ARG126      0.0307
     81  CG        12.1180  -10.9550   -5.6600 C.3   126  ARG126      0.0489
     82  CD        11.8530  -12.0010   -4.6780 C.3   126  ARG126      0.2205
     83  NE        11.0630  -11.4810   -3.5660 N.pl3 126  ARG126     -0.0865
     84  CZ        10.9550  -12.0560   -2.3720 C.cat 126  ARG126      0.5346
     85  NH1       11.5940  -13.1870   -2.1010 N.pl3 126  ARG126      0.1354
     86  NH2       10.1930  -11.4800   -1.4290 N.pl3 126  ARG126      0.1354
     87  N          7.5070  -12.0140  -10.0510 N.3   129  ARG129     -0.1245
     88  CA         6.5220  -12.6660   -9.2060 C.3   129  ARG129      0.1563
     89  C          5.7740  -11.6290   -8.3630 C.2   129  ARG129      0.2260
     90  O          6.3340  -10.5880   -8.0020 O.2   129  ARG129     -0.2867
     91  CB         7.1940  -13.7200   -8.2990 C.3   129  ARG129      0.0307
     92  CG         6.1760  -14.6310   -7.5960 C.3   129  ARG129      0.0489
     93  CD         6.8210  -15.6890   -6.7450 C.3   129  ARG129      0.2205
     94  NE         7.6210  -16.6170   -7.5390 N.pl3 129  ARG129     -0.0865
     95  CZ         8.3460  -17.6140   -7.0260 C.cat 129  ARG129      0.5346
     96  NH1        8.3790  -17.8140   -5.7080 N.pl3 129  ARG129      0.1354
     97  NH2        9.0440  -18.4110   -7.8310 N.pl3 129  ARG129      0.1354
     98  N          3.8890  -10.9840   -4.7620 N.3   131  TYR131     -0.1227
     99  CA         3.8040  -11.4570   -3.3910 C.3   131  TYR131      0.1736
    100  C          2.6620  -10.7590   -2.6350 C.2   131  TYR131      0.2595
    101  O          2.1590   -9.7250   -3.0780 O.2   131  TYR131     -0.2718
    102  CB         5.1340  -11.2250   -2.6840 C.3   131  TYR131      0.0548
    103  CG         6.2570  -12.0920   -3.2180 C.ar  131  TYR131     -0.0200
    104  CD1        6.5170  -13.3550   -2.6720 C.ar  131  TYR131     -0.0009
    105  CD2        7.0760  -11.6430   -4.2660 C.ar  131  TYR131     -0.0009
    106  CE1        7.5760  -14.1580   -3.1600 C.ar  131  TYR131      0.0417
    107  CE2        8.1150  -12.4340   -4.7620 C.ar  131  TYR131      0.0417
    108  CZ         8.3620  -13.6900   -4.2030 C.ar  131  TYR131      0.1957
    109  OH         9.3910  -14.4610   -4.7000 O.3   131  TYR131     -0.2866
    110  N          2.2610  -11.3530   -1.5070 N.am  132  GLN132     -0.1966
    111  CA         1.2160  -10.7950   -0.6220 C.3   132  GLN132      0.1718
    112  C          1.7490  -10.7190    0.8260 C.2   132  GLN132      0.2458
    113  O          1.8190  -11.7430    1.5120 O.2   132  GLN132     -0.2730
    114  CB        -0.0530  -11.6520   -0.6720 C.3   132  GLN132      0.0407
    115  CG        -0.8940  -11.4800   -1.9480 C.3   132  GLN132      0.0908
    116  CD        -1.3140  -10.0420   -2.2130 C.2   132  GLN132      0.2608
    117  OE1       -1.9700   -9.4170   -1.3890 O.2   132  GLN132     -0.2717
    118  NE2       -0.8830   -9.4960   -3.3370 N.am  132  GLN132     -0.0878
    119  N          2.1430   -9.5090    1.2900 N.am  133  PRO133     -0.2727
    120  CA         2.0470   -8.2100    0.5940 C.3   133  PRO133      0.1402
    121  C          3.0940   -8.0770   -0.5360 C.2   133  PRO133      0.2269
    122  O          4.0950   -8.8040   -0.5330 O.2   133  PRO133     -0.2865
    123  CB         2.3150   -7.1980    1.7100 C.3   133  PRO133      0.0296
    124  CG         3.2230   -7.9240    2.6630 C.3   133  PRO133      0.0237
    125  CD         2.7980   -9.3810    2.6100 C.3   133  PRO133      0.0939
    126  N          6.2170   -6.9490   -2.8200 N.3   135  ASP135     -0.1239
    127  CA         7.5550   -6.4780   -2.5010 C.3   135  ASP135      0.1674
    128  C          7.6020   -4.9540   -2.5590 C.2   135  ASP135      0.2266
    129  O          7.2150   -4.3520   -3.5630 O.2   135  ASP135     -0.2867
    130  CB         8.5800   -6.9930   -3.5100 C.3   135  ASP135      0.1410
    131  CG         8.9820   -8.4270   -3.2730 C.2   135  ASP135      0.3668
    132  OD1        8.5680   -9.0160   -2.2590 O.co2 135  ASP135     -0.2456
    133  OD2        9.7340   -8.9660   -4.1190 O.co2 135  ASP135     -0.2456
    134  N         13.0880   -3.8710   -1.3550 N.3   139  TYR139     -0.1241
    135  CA        12.9520   -5.0570   -0.4880 C.3   139  TYR139      0.1605
    136  C         14.0250   -6.0890   -0.7880 C.2   139  TYR139      0.2264
    137  O         14.5690   -6.6880    0.1170 O.2   139  TYR139     -0.2867
    138  CB        11.6060   -5.7340   -0.6430 C.3   139  TYR139      0.0534
    139  CG        11.2640   -6.6880    0.4890 C.ar  139  TYR139     -0.0201
    140  CD1       11.1950   -6.2290    1.8080 C.ar  139  TYR139     -0.0009
    141  CD2       11.0000   -8.0350    0.2510 C.ar  139  TYR139     -0.0009
    142  CE1       10.8670   -7.0920    2.8630 C.ar  139  TYR139      0.0417
    143  CE2       10.6570   -8.8960    1.2970 C.ar  139  TYR139      0.0417
    144  CZ        10.6020   -8.4250    2.5920 C.ar  139  TYR139      0.1957
    145  OH        10.2530   -9.2580    3.6420 O.3   139  TYR139     -0.2866
@<TRIPOS>BOND
     1    87    88    1
     2    88    89    1
     3    88    91    1
     4    76    77    1
     5    78    79    2
     6    78    77    1
     7    89    90    2
     8    91    92    1
     9    77    80    1
    10    97    95    1
    11    92    93    1
    12    94    95    2
    13    94    93    1
    14    95    96    1
    15    80    81    1
    16     8     9    1
    17    10    11    2
    18    10     9    1
    19     4     3    2
    20     9    12    1
    21    81    82    1
    22     3     2    1
    23    98    99    1
    24   107   105   ar
    25   107   108   ar
    26   109   108    1
    27    82    83    1
    28    12    13    1
    29   105   103   ar
    30    13    14    1
    31   108   106   ar
    32   133   131   ar
    33     7     5    1
    34     6     5    1
    35     2     5    1
    36     2     1    1
    37    83    84    2
    38   129   128    2
    39   130   131    1
    40   130   127    1
    41    99   102    1
    42    99   100    1
    43   118   116   am
    44   131   132   ar
    45   103   102    1
    46   103   104   ar
    47    16    15    1
    48   106   104   ar
    49   101   100    2
    50    14    15    1
    51   126   127    1
    52   100   110   am
    53   128   127    1
    54    84    85    1
    55    84    86    1
    56   116   115    1
    57   116   117    2
    58   115   114    1
    59   110   111    1
    60   134   135    1
    61    24    22   ar
    62   136   135    1
    63   136   137    2
    64   114   111    1
    65   138   135    1
    66   138   139    1
    67   111   112    1
    68   121   122    2
    69   121   120    1
    70   141   139   ar
    71   141   143   ar
    72    22    21    1
    73    22    23   ar
    74   139   140   ar
    75   120   119    1
    76   120   123    1
    77    21    18    1
    78    69    66    1
    79    69    70    1
    80   112   119   am
    81   112   113    2
    82    66    65    1
    83    66    67    1
    84   119   125    1
    85   143   144   ar
    86   123   124    1
    87    64    62   ar
    88   140   142   ar
    89    70    71   ar
    90    70    72   ar
    91    18    17    1
    92    18    19    1
    93    68    67    2
    94    71    73   ar
    95   144   142   ar
    96   144   145    1
    97   125   124    1
    98    72    74   ar
    99    19    20    2
   100    62    63   ar
   101    62    61    1
   102    34    35   ar
   103    34    32   ar
   104    73    75   ar
   105    74    75   ar
   106    35    33   ar
   107    61    58    1
   108    32    30   ar
   109    49    50    1
   110    49    46    1
   111    52    54   ar
   112    52    50   ar
   113    33    31   ar
   114    58    57    1
   115    58    59    1
   116    54    55   ar
   117    50    51   ar
   118    30    31   ar
   119    30    29    1
   120    57    47   am
   121    51    53   ar
   122    55    56    1
   123    55    53   ar
   124    47    48    2
   125    47    46    1
   126    29    26    1
   127    60    59    2
   128    46    45    1
   129    25    26    1
   130    26    27    1
   131    28    27    2
   132    27    36   am
   133    39    38    2
   134    36    37    1
   135    38    37    1
   136    37    40    1
   137    40    41    1
   138    41    42    1
   139    42    43    1
   140    43    44    1
