@<TRIPOS>MOLECULE
tmp/2p0mB00.pdb
 189 179 0 0 0
SMALL
GASTEIGER

@<TRIPOS>ATOM
      1  N        -58.3620  164.7300   44.7480 N.3   172  ILE172     -0.1245
      2  CA       -57.0680  164.3840   44.2050 C.3   172  ILE172      0.1561
      3  C        -56.3280  165.6670   44.6320 C.2   172  ILE172      0.2260
      4  O        -56.8510  166.7860   44.4870 O.2   172  ILE172     -0.2867
      5  CB       -57.0540  164.1770   42.6420 C.3   172  ILE172      0.0252
      6  CG1      -57.2000  165.4950   41.8920 C.3   172  ILE172      0.0019
      7  CG2      -58.1110  163.1830   42.2360 C.3   172  ILE172      0.0019
      8  CD1      -56.6930  165.4450   40.4610 C.3   172  ILE172      0.0001
      9  N        -48.8000  162.4360   23.4150 N.3   352  PHE352     -0.1241
     10  CA       -48.9290  162.6350   24.8460 C.3   352  PHE352      0.1605
     11  C        -48.7680  164.1050   25.2240 C.2   352  PHE352      0.2264
     12  O        -49.5050  164.6130   26.0500 O.2   352  PHE352     -0.2867
     13  CB       -47.9010  161.7860   25.6020 C.3   352  PHE352      0.0534
     14  CG       -48.1260  161.7470   27.0770 C.ar  352  PHE352     -0.0203
     15  CD1      -49.4030  161.5810   27.5860 C.ar  352  PHE352     -0.0042
     16  CD2      -47.0620  161.8380   27.9610 C.ar  352  PHE352     -0.0042
     17  CE1      -49.6180  161.5070   28.9600 C.ar  352  PHE352     -0.0003
     18  CE2      -47.2610  161.7630   29.3390 C.ar  352  PHE352     -0.0003
     19  CZ       -48.5410  161.5970   29.8420 C.ar  352  PHE352     -0.0000
     20  N        -52.2320  166.4960   26.3570 N.3   356  GLU356     -0.1231
     21  CA       -52.3080  167.1400   27.6320 C.3   356  GLU356      0.1699
     22  C        -52.3020  168.6480   27.5530 C.2   356  GLU356      0.2592
     23  O        -53.0300  169.3060   28.2930 O.2   356  GLU356     -0.2718
     24  CB       -51.1960  166.6420   28.5390 C.3   356  GLU356      0.0402
     25  CG       -51.3230  165.1390   28.9250 C.3   356  GLU356      0.1161
     26  CD       -52.5540  164.7790   29.7840 C.2   356  GLU356      0.3649
     27  OE1      -52.6060  163.6450   30.3170 O.co2 356  GLU356     -0.2457
     28  OE2      -53.4630  165.6250   29.9160 O.co2 356  GLU356     -0.2457
     29  N        -51.5330  169.2280   26.6460 N.am  357  LEU357     -0.1980
     30  CA       -51.4860  170.6890   26.6260 C.3   357  LEU357      0.1596
     31  C        -52.4910  171.4280   25.7450 C.2   357  LEU357      0.2287
     32  O        -53.0280  172.4730   26.1150 O.2   357  LEU357     -0.2864
     33  CB       -50.0640  171.1360   26.2680 C.3   357  LEU357      0.0297
     34  CG       -48.9530  170.7940   27.2850 C.3   357  LEU357      0.0022
     35  CD1      -47.5940  170.9310   26.6100 C.3   357  LEU357      0.0001
     36  CD2      -49.0420  171.7370   28.4870 C.3   357  LEU357      0.0001
     37  N        -56.3940  168.9180   26.0680 N.3   360  HIS360     -0.1226
     38  CA       -56.8580  168.8900   27.4520 C.3   360  HIS360      0.1752
     39  C        -56.7220  170.2410   28.1840 C.2   360  HIS360      0.2595
     40  O        -57.7300  170.8460   28.5380 O.2   360  HIS360     -0.2718
     41  CB       -56.1130  167.7910   28.2330 C.3   360  HIS360      0.0759
     42  CG       -56.7860  167.3460   29.5010 C.ar  360  HIS360      0.0818
     43  ND1      -56.1910  166.4600   30.3750 N.ar  360  HIS360     -0.2268
     44  CD2      -57.9980  167.6400   30.0340 C.ar  360  HIS360      0.1154
     45  CE1      -57.0020  166.2300   31.3890 C.ar  360  HIS360      0.1986
     46  NE2      -58.1060  166.9330   31.2090 N.ar  360  HIS360     -0.2212
     47  N        -55.5060  170.7200   28.4300 N.am  361  LEU361     -0.1980
     48  CA       -55.3540  171.9670   29.1660 C.3   361  LEU361      0.1596
     49  C        -55.9840  173.1800   28.4930 C.2   361  LEU361      0.2287
     50  O        -56.9050  173.7740   29.0370 O.2   361  LEU361     -0.2864
     51  CB       -53.8840  172.2160   29.4270 C.3   361  LEU361      0.0297
     52  CG       -53.5850  173.4550   30.2850 C.3   361  LEU361      0.0022
     53  CD1      -54.2920  173.4320   31.6480 C.3   361  LEU361      0.0001
     54  CD2      -52.0700  173.4910   30.4660 C.3   361  LEU361      0.0001
     55  N        -59.7120  172.8940   29.7940 N.3   365  HIS365     -0.1241
     56  CA       -59.7190  173.7040   30.9910 C.3   365  HIS365      0.1621
     57  C        -59.6770  175.2120   30.8430 C.2   365  HIS365      0.2264
     58  O        -60.5100  175.8870   31.4280 O.2   365  HIS365     -0.2867
     59  CB       -58.5970  173.2390   31.9210 C.3   365  HIS365      0.0745
     60  CG       -58.8390  171.8930   32.5100 C.ar  365  HIS365      0.0817
     61  ND1      -59.4000  171.7190   33.7550 N.ar  365  HIS365     -0.2268
     62  CD2      -58.6580  170.6520   31.9980 C.ar  365  HIS365      0.1154
     63  CE1      -59.5530  170.4280   33.9870 C.ar  365  HIS365      0.1986
     64  NE2      -59.1120  169.7590   32.9370 N.ar  365  HIS365     -0.2212
     65  N        -60.1350  173.9950   40.1280 N.3   399  ILE399     -0.1245
     66  CA       -59.1710  173.0630   39.5690 C.3   399  ILE399      0.1561
     67  C        -58.0380  173.7280   38.8230 C.2   399  ILE399      0.2260
     68  O        -56.8730  173.4010   39.0130 O.2   399  ILE399     -0.2867
     69  CB       -59.8490  172.0880   38.6290 C.3   399  ILE399      0.0252
     70  CG1      -60.9900  171.4300   39.3760 C.3   399  ILE399      0.0019
     71  CG2      -58.8860  171.0050   38.2270 C.3   399  ILE399      0.0019
     72  CD1      -60.5230  170.7890   40.6800 C.3   399  ILE399      0.0001
     73  N        -55.5100  175.3910   40.9350 N.3   402  ARG402     -0.1231
     74  CA       -54.6420  174.3990   41.5440 C.3   402  ARG402      0.1694
     75  C        -53.6590  173.8920   40.5070 C.2   402  ARG402      0.2591
     76  O        -52.5040  173.6240   40.8100 O.2   402  ARG402     -0.2718
     77  CB       -55.4530  173.2270   42.0980 C.3   402  ARG402      0.0321
     78  CG       -56.0040  173.4350   43.4900 C.3   402  ARG402      0.0489
     79  CD       -56.4910  172.1170   44.1210 C.3   402  ARG402      0.2205
     80  NE       -56.8360  172.2580   45.5410 N.pl3 402  ARG402     -0.0865
     81  CZ       -57.0980  171.2430   46.3700 C.cat 402  ARG402      0.5346
     82  NH1      -57.0570  169.9890   45.9270 N.pl3 402  ARG402      0.1354
     83  NH2      -57.4000  171.4800   47.6490 N.pl3 402  ARG402      0.1354
     84  N        -54.1160  173.7710   39.2690 N.am  403  ALA403     -0.1980
     85  CA       -53.2480  173.2990   38.1950 C.3   403  ALA403      0.1597
     86  C        -52.0530  174.2260   38.0090 C.2   403  ALA403      0.2287
     87  O        -50.9100  173.7880   37.8670 O.2   403  ALA403     -0.2864
     88  CB       -54.0300  173.2070   36.8920 C.3   403  ALA403      0.0319
     89  N        -49.0270  171.8040   39.0310 N.3   407  LEU407     -0.1231
     90  CA       -48.8810  170.9260   37.8830 C.3   407  LEU407      0.1693
     91  C        -48.1840  171.5540   36.6870 C.2   407  LEU407      0.2591
     92  O        -47.0950  171.1330   36.2910 O.2   407  LEU407     -0.2718
     93  CB       -50.2500  170.4270   37.4540 C.3   407  LEU407      0.0284
     94  CG       -50.2440  168.9500   37.0500 C.3   407  LEU407      0.0019
     95  CD1      -51.6580  168.4130   37.1770 C.3   407  LEU407      0.0001
     96  CD2      -49.7140  168.7800   35.6450 C.3   407  LEU407      0.0001
     97  N        -48.8220  172.5450   36.0860 N.am  408  VAL408     -0.1980
     98  CA       -48.2120  173.1850   34.9380 C.3   408  VAL408      0.1595
     99  C        -47.3370  174.3650   35.3490 C.2   408  VAL408      0.2287
    100  O        -46.6890  174.9930   34.5110 O.2   408  VAL408     -0.2864
    101  CB       -49.2840  173.6500   33.9300 C.3   408  VAL408      0.0276
    102  CG1      -49.9300  172.4380   33.2890 C.3   408  VAL408      0.0022
    103  CG2      -50.3480  174.4900   34.6330 C.3   408  VAL408      0.0022
    104  N        -45.3920  168.9530   35.8940 N.3   414  PHE414     -0.1241
    105  CA       -45.2700  168.8030   34.4550 C.3   414  PHE414      0.1605
    106  C        -43.8220  169.0520   34.0950 C.2   414  PHE414      0.2264
    107  O        -43.2690  168.3790   33.2360 O.2   414  PHE414     -0.2867
    108  CB       -46.1590  169.8270   33.7600 C.3   414  PHE414      0.0534
    109  CG       -46.4480  169.5050   32.3280 C.ar  414  PHE414     -0.0203
    110  CD1      -47.6280  168.8590   31.9780 C.ar  414  PHE414     -0.0042
    111  CD2      -45.5280  169.8220   31.3280 C.ar  414  PHE414     -0.0042
    112  CE1      -47.8890  168.5260   30.6480 C.ar  414  PHE414     -0.0003
    113  CE2      -45.7740  169.4970   29.9970 C.ar  414  PHE414     -0.0003
    114  CZ       -46.9560  168.8470   29.6500 C.ar  414  PHE414     -0.0000
    115  N        -41.6880  165.7730   34.6380 N.3   417  ILE417     -0.1231
    116  CA       -41.6790  164.5240   33.8680 C.3   417  ILE417      0.1692
    117  C        -41.9000  164.6050   32.3670 C.2   417  ILE417      0.2591
    118  O        -41.6920  163.6250   31.6470 O.2   417  ILE417     -0.2718
    119  CB       -42.7480  163.5610   34.3800 C.3   417  ILE417      0.0266
    120  CG1      -44.1230  164.1400   34.0820 C.3   417  ILE417      0.0019
    121  CG2      -42.6080  163.3600   35.8860 C.3   417  ILE417      0.0020
    122  CD1      -45.2160  163.2210   34.4700 C.3   417  ILE417      0.0001
    123  N        -42.3630  165.7540   31.9090 N.am  418  MET418     -0.1979
    124  CA       -42.6720  165.9340   30.5130 C.3   418  MET418      0.1605
    125  C        -41.5560  166.5880   29.7190 C.2   418  MET418      0.2287
    126  O        -40.9370  167.5580   30.1580 O.2   418  MET418     -0.2864
    127  CB       -43.9280  166.7710   30.4090 C.3   418  MET418      0.0413
    128  CG       -45.1030  166.1740   31.1360 C.3   418  MET418      0.0598
    129  SD       -45.5080  164.5400   30.4710 S.3   418  MET418     -0.1393
    130  CE       -46.5490  164.9880   29.1390 C.3   418  MET418      0.0692
    131  N        -60.5230  163.6090   28.9430 N.3   544  HIS544     -0.1241
    132  CA       -60.0590  163.3360   30.2930 C.3   544  HIS544      0.1621
    133  C        -60.1770  161.8710   30.6870 C.2   544  HIS544      0.2264
    134  O        -59.2450  161.2840   31.2400 O.2   544  HIS544     -0.2867
    135  CB       -60.8490  164.2090   31.2660 C.3   544  HIS544      0.0745
    136  CG       -60.3610  164.1350   32.6700 C.ar  544  HIS544      0.0817
    137  ND1      -59.7490  165.2030   33.2920 N.ar  544  HIS544     -0.2268
    138  CD2      -60.3400  163.1110   33.5560 C.ar  544  HIS544      0.1154
    139  CE1      -59.3670  164.8350   34.4990 C.ar  544  HIS544      0.1986
    140  NE2      -59.7110  163.5740   34.6860 N.ar  544  HIS544     -0.2212
    141  N        -57.3770  159.0590   29.8370 N.3   547  GLN547     -0.1245
    142  CA       -56.0400  159.1460   30.3730 C.3   547  GLN547      0.1566
    143  C        -55.6090  157.8560   31.0370 C.2   547  GLN547      0.2260
    144  O        -54.5330  157.3430   30.7610 O.2   547  GLN547     -0.2867
    145  CB       -55.9700  160.3180   31.3380 C.3   547  GLN547      0.0367
    146  CG       -56.1370  161.6090   30.5860 C.3   547  GLN547      0.0905
    147  CD       -56.2360  162.8150   31.4640 C.2   547  GLN547      0.2608
    148  OE1      -57.2110  162.9700   32.1750 O.2   547  GLN547     -0.2717
    149  NE2      -55.2310  163.6870   31.4160 N.am  547  GLN547     -0.0878
    150  N        -49.0120  160.6690   38.6530 N.3   592  ILE592     -0.1231
    151  CA       -49.8970  161.7360   38.2430 C.3   592  ILE592      0.1692
    152  C        -51.1330  161.3060   37.4590 C.2   592  ILE592      0.2591
    153  O        -52.1530  161.9940   37.4850 O.2   592  ILE592     -0.2718
    154  CB       -49.1380  162.7800   37.4230 C.3   592  ILE592      0.0266
    155  CG1      -49.9810  164.0510   37.3280 C.3   592  ILE592      0.0019
    156  CG2      -48.7840  162.2180   36.0700 C.3   592  ILE592      0.0020
    157  CD1      -50.1450  164.8170   38.6910 C.3   592  ILE592      0.0001
    158  N        -51.0510  160.1650   36.7870 N.am  593  VAL593     -0.1980
    159  CA       -52.1500  159.6650   35.9700 C.3   593  VAL593      0.1595
    160  C        -53.1390  158.8100   36.7610 C.2   593  VAL593      0.2287
    161  O        -54.3480  159.0200   36.6920 O.2   593  VAL593     -0.2864
    162  CB       -51.5890  158.8390   34.7840 C.3   593  VAL593      0.0276
    163  CG1      -52.6920  158.0720   34.1000 C.3   593  VAL593      0.0022
    164  CG2      -50.9090  159.7550   33.7910 C.3   593  VAL593      0.0022
    165  N        -53.8120  158.8230   39.7910 N.3   595  GLN595     -0.1231
    166  CA       -54.6190  159.5370   40.7550 C.3   595  GLN595      0.1698
    167  C        -55.9800  159.9420   40.2210 C.2   595  GLN595      0.2592
    168  O        -56.9110  160.1850   40.9900 O.2   595  GLN595     -0.2718
    169  CB       -53.8720  160.7450   41.2510 C.3   595  GLN595      0.0381
    170  CG       -52.7960  160.3700   42.2260 C.3   595  GLN595      0.0905
    171  CD       -51.7550  161.4430   42.2990 C.2   595  GLN595      0.2608
    172  OE1      -50.9290  161.4910   43.2190 O.2   595  GLN595     -0.2717
    173  NE2      -51.7830  162.3320   41.3070 N.am  595  GLN595     -0.0878
    174  N        -56.1000  160.0110   38.9030 N.am  596  LEU596     -0.1980
    175  CA       -57.3760  160.3610   38.2900 C.3   596  LEU596      0.1596
    176  C        -58.3320  159.1670   38.2630 C.2   596  LEU596      0.2287
    177  O        -59.5010  159.2740   38.6320 O.2   596  LEU596     -0.2864
    178  CB       -57.1560  160.8440   36.8650 C.3   596  LEU596      0.0297
    179  CG       -56.3130  162.1060   36.8330 C.3   596  LEU596      0.0022
    180  CD1      -55.7790  162.3480   35.4180 C.3   596  LEU596      0.0001
    181  CD2      -57.2020  163.2580   37.3350 C.3   596  LEU596      0.0001
    182  N        -62.1670  168.4010   36.9910 N.3   662  ILE662     -0.1245
    183  CA       -61.1250  167.4810   37.3410 C.3   662  ILE662      0.1561
    184  C        -60.1600  167.4710   36.1610 C.2   662  ILE662      0.2260
    185  O        -58.9690  167.3540   36.3110 O.2   662  ILE662     -0.2867
    186  CB       -61.6540  166.0520   37.5290 C.3   662  ILE662      0.0252
    187  CG1      -60.5030  165.1990   38.0310 C.3   662  ILE662      0.0019
    188  CG2      -62.2080  165.5050   36.2240 C.3   662  ILE662      0.0019
    189  CD1      -60.1100  165.5020   39.4580 C.3   662  ILE662      0.0001
@<TRIPOS>BOND
     1     9    10    1
     2    10    11    1
     3    10    13    1
     4    11    12    2
     5    13    14    1
     6    31    32    2
     7    31    30    1
     8    37    38    1
     9    33    30    1
    10    33    34    1
    11    20    21    1
    12    35    34    1
    13    30    29    1
    14    29    22   am
    15    14    15   ar
    16    14    16   ar
    17    34    36    1
    18    38    39    1
    19    38    41    1
    20    22    21    1
    21    22    23    2
    22    15    17   ar
    23    21    24    1
    24    16    18   ar
    25    39    47   am
    26    39    40    2
    27    41    42    1
    28    47    48    1
    29    49    50    2
    30    49    48    1
    31    24    25    1
    32    25    26    1
    33   131   132    1
    34    17    19   ar
    35   130   129    1
    36    48    51    1
    37    18    19   ar
    38    51    52    1
    39    42    44   ar
    40    42    43   ar
    41   114   113   ar
    42   114   112   ar
    43   125   126    2
    44   125   124    1
    45    26    28   ar
    46    26    27   ar
    47    55    56    1
    48   141   142    1
    49   113   111   ar
    50    44    46   ar
    51    52    54    1
    52    52    53    1
    53   132   133    1
    54   132   135    1
    55   142   143    1
    56   142   145    1
    57    43    45   ar
    58   127   124    1
    59   127   128    1
    60   129   128    1
    61   124   123    1
    62   146   145    1
    63   146   147    1
    64   112   110   ar
    65   133   134    2
    66   144   143    2
    67    57    56    1
    68    57    58    2
    69    56    59    1
    70    46    45   ar
    71   135   136    1
    72   111   109   ar
    73   149   147   am
    74   147   148    2
    75   118   117    2
    76   123   117   am
    77    59    60    1
    78   110   109   ar
    79    62    60   ar
    80    62    64   ar
    81   109   108    1
    82   117   116    1
    83    60    61   ar
    84   136   137   ar
    85   136   138   ar
    86    64    63   ar
    87   107   106    2
    88   102   101    1
    89   137   139   ar
    90   138   140   ar
    91    61    63   ar
    92   108   105    1
    93   164   162    1
    94   116   119    1
    95   116   115    1
    96   101   103    1
    97   101    98    1
    98   120   119    1
    99   120   122    1
   100   106   105    1
   101   163   162    1
   102   119   121    1
   103   105   104    1
   104   139   140   ar
   105   100    99    2
   106   162   159    1
   107    98    99    1
   108    98    97    1
   109   180   179    1
   110    96    94    1
   111   159   160    1
   112   159   158    1
   113   156   154    1
   114    97    91   am
   115   184   185    2
   116   184   183    1
   117   188   186    1
   118    92    91    2
   119    91    90    1
   120   161   160    2
   121   158   152   am
   122   179   178    1
   123   179   181    1
   124   178   175    1
   125    88    85    1
   126   182   183    1
   127    94    95    1
   128    94    93    1
   129   155   154    1
   130   155   157    1
   131   183   186    1
   132   154   151    1
   133    93    90    1
   134   152   153    2
   135   152   151    1
   136   186   187    1
   137    87    86    2
   138    90    89    1
   139    86    85    1
   140   187   189    1
   141    85    84    1
   142    71    69    1
   143   151   150    1
   144   176   175    1
   145   176   177    2
   146   175   174    1
   147    69    70    1
   148    69    66    1
   149    67    68    2
   150    67    66    1
   151   174   167   am
   152    84    75   am
   153    70    72    1
   154    66    65    1
   155   165   166    1
   156   167   166    1
   157   167   168    2
   158     8     6    1
   159    75    76    2
   160    75    74    1
   161   166   169    1
   162    73    74    1
   163   169   170    1
   164   173   171   am
   165    74    77    1
   166     6     5    1
   167    77    78    1
   168   170   171    1
   169     7     5    1
   170   171   172    2
   171     5     2    1
   172    78    79    1
   173    79    80    1
   174     2     3    1
   175     2     1    1
   176     4     3    2
   177    80    81    2
   178    82    81    1
   179    81    83    1
