@<TRIPOS>MOLECULE
tmp/2p0rB00.pdb
 135 129 0 0 0
SMALL
GASTEIGER

@<TRIPOS>ATOM
      1  N         12.4240   18.0140   57.4200 N.3    73  GLN73      -0.1245
      2  CA        11.3040   17.6070   56.6090 C.3    73  GLN73       0.1566
      3  C         11.4870   17.8820   55.1120 C.2    73  GLN73       0.2260
      4  O         12.0020   18.9260   54.7150 O.2    73  GLN73      -0.2867
      5  CB        10.0650   18.3240   57.1070 C.3    73  GLN73       0.0367
      6  CG         8.8300   17.7790   56.5180 C.3    73  GLN73       0.0905
      7  CD         7.6450   18.6320   56.8190 C.2    73  GLN73       0.2608
      8  OE1        7.0810   18.6160   57.9230 O.2    73  GLN73      -0.2717
      9  NE2        7.2460   19.4010   55.8200 N.am   73  GLN73      -0.0878
     10  N          3.6050   16.9830   54.0890 N.3    77  GLY77      -0.1225
     11  CA         3.0210   17.5270   55.3000 C.3    77  GLY77       0.1811
     12  C          2.8940   16.5080   56.4190 C.2    77  GLY77       0.2280
     13  O          1.7960   16.3220   56.9820 O.2    77  GLY77      -0.2866
     14  N          4.7810   16.7210   59.3760 N.3    79  CYS79      -0.1221
     15  CA         5.2960   17.3200   60.6190 C.3    79  CYS79       0.1808
     16  C          4.9580   16.4940   61.8750 C.2    79  CYS79       0.2601
     17  O          5.8170   16.2900   62.7180 O.2    79  CYS79      -0.2717
     18  CB         4.6980   18.7200   60.7990 C.3    79  CYS79       0.0970
     19  SG         2.8420   18.7480   60.8550 S.3    79  CYS79      -0.0800
     20  N          3.6920   16.0660   61.9930 N.am   80  TRP80      -0.1976
     21  CA         3.2260   15.2000   63.0850 C.3    80  TRP80       0.1640
     22  C          4.1180   13.9570   63.3110 C.2    80  TRP80       0.2290
     23  O          4.4180   13.5940   64.4490 O.2    80  TRP80      -0.2864
     24  CB         1.7570   14.7690   62.8710 C.3    80  TRP80       0.0576
     25  CG         1.5070   14.0280   61.5850 C.ar   80  TRP80       0.0006
     26  CD1        1.3190   14.5790   60.3550 C.ar   80  TRP80       0.0946
     27  CD2        1.4470   12.6060   61.3920 C.ar   80  TRP80       0.0152
     28  NE1        1.1490   13.6010   59.4130 N.ar   80  TRP80      -0.2442
     29  CE2        1.2230   12.3830   60.0150 C.ar   80  TRP80       0.0810
     30  CE3        1.5670   11.5030   62.2450 C.ar   80  TRP80       0.0012
     31  CZ2        1.1000   11.1060   59.4730 C.ar   80  TRP80       0.0191
     32  CZ3        1.4590   10.2400   61.7150 C.ar   80  TRP80       0.0001
     33  CH2        1.2250   10.0450   60.3360 C.ar   80  TRP80       0.0015
     34  N          0.2710   12.6590   54.5670 N.3   170  LYS170     -0.1231
     35  CA        -0.0160   14.0980   54.4900 C.3   170  LYS170      0.1693
     36  C         -1.1660   14.4000   55.4470 C.2   170  LYS170      0.2593
     37  O         -2.3100   13.9990   55.2150 O.2   170  LYS170     -0.2718
     38  CB        -0.3270   14.5280   53.0520 C.3   170  LYS170      0.0285
     39  CG        -1.0760   15.8590   52.8810 C.3   170  LYS170      0.0035
     40  CD        -1.6220   15.9550   51.4520 C.3   170  LYS170      0.0206
     41  CE        -2.5280   17.1630   51.2130 C.3   170  LYS170      0.1093
     42  NZ        -3.3540   16.9960   49.9600 N.3   170  LYS170     -0.1314
     43  N         -0.8440   15.0920   56.5380 N.am  171  GLY171     -0.1942
     44  CA        -1.8060   15.3470   57.5870 C.3   171  GLY171      0.2014
     45  C         -1.8550   14.1360   58.4890 C.2   171  GLY171      0.2639
     46  O         -1.8120   12.9980   58.0220 O.2   171  GLY171     -0.2714
     47  N         -1.9270   14.3750   59.7900 N.am  172  GLY172     -0.1939
     48  CA        -1.9850   13.2810   60.7460 C.3   172  GLY172      0.2014
     49  C         -1.9440   13.7330   62.1880 C.2   172  GLY172      0.2640
     50  O         -1.9810   14.9260   62.4790 O.2   172  GLY172     -0.2714
     51  N         -1.8590   12.7560   63.0840 N.am  173  SER173     -0.1935
     52  CA        -1.9960   12.9720   64.5180 C.3   173  SER173      0.2055
     53  C         -0.6320   12.7360   65.1590 C.2   173  SER173      0.2642
     54  O         -0.0080   11.7050   64.9320 O.2   173  SER173     -0.2714
     55  CB        -3.0560   12.0100   65.0830 C.3   173  SER173      0.2130
     56  OG        -3.1030   12.0250   66.5010 O.3   173  SER173     -0.2179
     57  N         -0.1630   13.7040   65.9410 N.am  174  ALA174     -0.1977
     58  CA         1.1300   13.5640   66.5980 C.3   174  ALA174      0.1597
     59  C          1.0460   12.4730   67.6480 C.2   174  ALA174      0.2287
     60  O          1.9960   11.7150   67.8040 O.2   174  ALA174     -0.2864
     61  CB         1.5960   14.8780   67.2130 C.3   174  ALA174      0.0319
     62  N          1.3760   22.3110   69.5980 N.3   215  PHE215     -0.1227
     63  CA         0.9020   22.8980   68.3620 C.3   215  PHE215      0.1736
     64  C         -0.1340   23.9670   68.6120 C.2   215  PHE215      0.2595
     65  O         -0.6690   24.0800   69.7090 O.2   215  PHE215     -0.2718
     66  CB         0.3460   21.8300   67.3990 C.3   215  PHE215      0.0547
     67  CG        -0.8510   21.0570   67.9200 C.ar  215  PHE215     -0.0202
     68  CD1       -0.6840   19.8810   68.6230 C.ar  215  PHE215     -0.0042
     69  CD2       -2.1560   21.4750   67.6370 C.ar  215  PHE215     -0.0042
     70  CE1       -1.7950   19.1520   69.0760 C.ar  215  PHE215     -0.0003
     71  CE2       -3.2800   20.7400   68.0830 C.ar  215  PHE215     -0.0003
     72  CZ        -3.0930   19.5820   68.8060 C.ar  215  PHE215     -0.0000
     73  N         -0.3900   24.7420   67.5580 N.am  216  ILE216     -0.1980
     74  CA        -1.3260   25.8630   67.5480 C.3   216  ILE216      0.1595
     75  C         -2.5670   25.4210   66.8010 C.2   216  ILE216      0.2287
     76  O         -2.4750   24.6090   65.8930 O.2   216  ILE216     -0.2864
     77  CB        -0.7020   27.0630   66.8190 C.3   216  ILE216      0.0276
     78  CG1        0.5800   27.4980   67.5330 C.3   216  ILE216      0.0022
     79  CG2       -1.6970   28.2250   66.7010 C.3   216  ILE216      0.0022
     80  CD1        1.3010   28.6190   66.8300 C.3   216  ILE216      0.0001
     81  N         -5.8120   25.2330   64.3790 N.3   218  THR218     -0.1218
     82  CA        -6.1990   25.5720   63.0260 C.3   218  THR218      0.1862
     83  C         -7.6810   25.8660   63.0410 C.2   218  THR218      0.2287
     84  O         -8.4870   24.9930   63.3830 O.2   218  THR218     -0.2866
     85  CB        -6.0100   24.3860   62.0260 C.3   218  THR218      0.1770
     86  OG1       -7.2160   24.2190   61.2660 O.3   218  THR218     -0.2211
     87  CG2       -5.6830   23.0290   62.7380 C.3   218  THR218      0.0375
     88  N         -8.4010   24.8830   58.1710 N.3   221  ALA221     -0.1245
     89  CA        -7.7950   23.9790   57.1800 C.3   221  ALA221      0.1562
     90  C         -7.1680   24.8020   56.0510 C.2   221  ALA221      0.2260
     91  O         -6.1760   24.3810   55.4610 O.2   221  ALA221     -0.2867
     92  CB        -8.8120   22.9620   56.6230 C.3   221  ALA221      0.0290
     93  N         -4.1410   26.0780   57.9430 N.3   224  SER224     -0.1202
     94  CA        -3.0680   25.0790   58.0380 C.3   224  SER224      0.2020
     95  C         -1.7850   25.5650   57.3870 C.2   224  SER224      0.2618
     96  O         -1.7930   25.9600   56.2210 O.2   224  SER224     -0.2717
     97  CB        -3.4940   23.7500   57.3880 C.3   224  SER224      0.2103
     98  OG        -2.4580   22.7790   57.4420 O.3   224  SER224     -0.2182
     99  N         -0.7050   25.5370   58.1710 N.am  225  GLU225     -0.1979
    100  CA         0.6460   25.9720   57.7720 C.3   225  GLU225      0.1602
    101  C          0.8280   27.4920   57.5710 C.2   225  GLU225      0.2287
    102  O          1.8370   27.9170   56.9980 O.2   225  GLU225     -0.2864
    103  CB         1.1420   25.2120   56.5410 C.3   225  GLU225      0.0415
    104  CG         1.2000   23.7130   56.7210 C.3   225  GLU225      0.1163
    105  CD         2.4010   23.2610   57.5400 C.2   225  GLU225      0.3649
    106  OE1        2.4110   23.4830   58.7660 O.co2 225  GLU225     -0.2457
    107  OE2        3.3280   22.6680   56.9560 O.co2 225  GLU225     -0.2457
    108  N         -1.2290   24.9330   62.8340 N.3   235  GLY235     -0.1210
    109  CA        -1.5860   23.6050   62.3620 C.3   235  GLY235      0.1956
    110  C         -0.3840   22.6990   62.1760 C.2   235  GLY235      0.2612
    111  O         -0.4090   21.7790   61.3540 O.2   235  GLY235     -0.2717
    112  N          0.6580   22.9420   62.9620 N.am  236  HIS236     -0.1961
    113  CA         1.9710   22.3840   62.6950 C.3   236  HIS236      0.1787
    114  C          2.5110   21.7860   64.0090 C.2   236  HIS236      0.2620
    115  O          2.5680   22.4630   65.0380 O.2   236  HIS236     -0.2715
    116  CB         2.8640   23.4950   62.1020 C.3   236  HIS236      0.0785
    117  CG         4.1510   23.0210   61.4800 C.ar  236  HIS236      0.0821
    118  ND1        4.2140   22.4100   60.2430 N.ar  236  HIS236     -0.2267
    119  CD2        5.4310   23.1300   61.9070 C.ar  236  HIS236      0.1154
    120  CE1        5.4710   22.1440   59.9510 C.ar  236  HIS236      0.1986
    121  NE2        6.2310   22.5750   60.9420 N.ar  236  HIS236     -0.2212
    122  N          2.8630   20.4980   63.9450 N.am  237  ALA237     -0.1977
    123  CA         3.3580   19.7300   65.0880 C.3   237  ALA237      0.1597
    124  C          4.8110   20.0660   65.3940 C.2   237  ALA237      0.2287
    125  O          5.6860   19.8970   64.5480 O.2   237  ALA237     -0.2864
    126  CB         3.2170   18.2180   64.8220 C.3   237  ALA237      0.0319
    127  N          0.8480   17.7330   73.8200 N.3   314  GLU314     -0.1245
    128  CA         0.5570   16.3090   73.9090 C.3   314  GLU314      0.1567
    129  C          1.7630   15.5350   74.4810 C.2   314  GLU314      0.2260
    130  O          2.8720   15.6360   73.9670 O.2   314  GLU314     -0.2867
    131  CB         0.1660   15.7730   72.5280 C.3   314  GLU314      0.0388
    132  CG        -1.0580   16.4610   71.9170 C.3   314  GLU314      0.1160
    133  CD        -1.3550   16.0300   70.4720 C.2   314  GLU314      0.3649
    134  OE1       -0.4120   16.0000   69.6480 O.co2 314  GLU314     -0.2457
    135  OE2       -2.5370   15.7380   70.1560 O.co2 314  GLU314     -0.2457
@<TRIPOS>BOND
     1    42    41    1
     2    41    40    1
     3    40    39    1
     4    39    38    1
     5    38    35    1
     6    10    11    1
     7    35    34    1
     8    35    36    1
     9     4     3    2
    10     3     2    1
    11    37    36    2
    12    11    12    1
    13    36    43   am
    14    91    90    2
    15     9     7   am
    16    90    89    1
    17    96    95    2
    18    12    13    2
    19     6     7    1
    20     6     5    1
    21    43    44    1
    22   103   104    1
    23   103   100    1
    24     2     5    1
    25     2     1    1
    26    92    89    1
    27   104   105    1
    28     7     8    2
    29   107   105   ar
    30   102   101    2
    31    89    88    1
    32    95    94    1
    33    95    99   am
    34    97    98    1
    35    97    94    1
    36   105   106   ar
    37   101   100    1
    38    44    45    1
    39   100    99    1
    40    93    94    1
    41    46    45    2
    42    45    47   am
    43    14    15    1
    44    28    29   ar
    45    28    26   ar
    46    31    29   ar
    47    31    33   ar
    48    47    48    1
    49   120   118   ar
    50   120   121   ar
    51    29    27   ar
    52   118   117   ar
    53    33    32   ar
    54    26    25   ar
    55    15    18    1
    56    15    16    1
    57    48    49    1
    58    18    19    1
    59   121   119   ar
    60    86    85    1
    61   111   110    2
    62    27    25   ar
    63    27    30   ar
    64   117   119   ar
    65   117   116    1
    66    25    24    1
    67    32    30   ar
    68    16    20   am
    69    16    17    2
    70    20    21    1
    71    85    87    1
    72    85    82    1
    73   116   113    1
    74   110   109    1
    75   110   112   am
    76    49    50    2
    77    49    51   am
    78   109   108    1
    79   113   112    1
    80   113   114    1
    81    24    21    1
    82    82    83    1
    83    82    81    1
    84    83    84    2
    85    51    52    1
    86    21    22    1
    87    22    23    2
    88   122   114   am
    89   122   123    1
    90   114   115    2
    91    52    55    1
    92    52    53    1
    93   125   124    2
    94   126   123    1
    95    54    53    2
    96    55    56    1
    97   123   124    1
    98    53    57   am
    99    76    75    2
   100    57    58    1
   101    58    61    1
   102    58    59    1
   103    79    77    1
   104    75    74    1
   105    77    78    1
   106    77    74    1
   107    80    78    1
   108    66    67    1
   109    66    63    1
   110    74    73    1
   111    73    64   am
   112    69    67   ar
   113    69    71   ar
   114    59    60    2
   115    67    68   ar
   116    71    72   ar
   117    63    64    1
   118    63    62    1
   119    64    65    2
   120    68    70   ar
   121    72    70   ar
   122   134   133   ar
   123   135   133   ar
   124   133   132    1
   125   132   131    1
   126   131   128    1
   127   127   128    1
   128   128   129    1
   129   130   129    2
