@<TRIPOS>MOLECULE
tmp/2p0wA00.pdb
 202 201 0 0 0
SMALL
GASTEIGER

@<TRIPOS>ATOM
      1  N        100.2350  -19.4580   14.4020 N.3   163  PHE163     -0.1227
      2  CA        99.3650  -18.3270   14.8520 C.3   163  PHE163      0.1736
      3  C         99.0470  -18.2300   16.3460 C.2   163  PHE163      0.2595
      4  O         98.5020  -17.2200   16.8390 O.2   163  PHE163     -0.2718
      5  CB        98.0830  -18.3090   14.0040 C.3   163  PHE163      0.0547
      6  CG        98.3560  -18.0350   12.5780 C.ar  163  PHE163     -0.0202
      7  CD1       98.9300  -16.8130   12.2050 C.ar  163  PHE163     -0.0042
      8  CD2       98.1250  -18.9990   11.6080 C.ar  163  PHE163     -0.0042
      9  CE1       99.2420  -16.5460   10.8710 C.ar  163  PHE163     -0.0003
     10  CE2       98.4440  -18.7530   10.2660 C.ar  163  PHE163     -0.0003
     11  CZ        98.9920  -17.5260    9.8870 C.ar  163  PHE163     -0.0000
     12  N         99.4110  -19.2750   17.0730 N.am  164  ILE164     -0.1980
     13  CA        99.2700  -19.2860   18.5390 C.3   164  ILE164      0.1595
     14  C        100.6650  -19.5600   19.0860 C.2   164  ILE164      0.2287
     15  O        101.2480  -20.6010   18.7650 O.2   164  ILE164     -0.2864
     16  CB        98.2550  -20.3700   19.0220 C.3   164  ILE164      0.0276
     17  CG1       96.8320  -19.9940   18.6000 C.3   164  ILE164      0.0022
     18  CG2       98.2990  -20.5100   20.5640 C.3   164  ILE164      0.0022
     19  CD1       95.7690  -20.9610   19.1250 C.3   164  ILE164      0.0001
     20  N         87.9720  -23.0900   26.9470 N.3   216  VAL216     -0.1231
     21  CA        88.4750  -22.7380   25.6100 C.3   216  VAL216      0.1692
     22  C         90.0260  -22.8660   25.5720 C.2   216  VAL216      0.2592
     23  O         90.7460  -22.1710   26.2970 O.2   216  VAL216     -0.2718
     24  CB        88.0230  -21.3200   25.1880 C.3   216  VAL216      0.0266
     25  CG1       88.4780  -20.9960   23.7510 C.3   216  VAL216      0.0020
     26  CG2       86.4570  -21.2130   25.2610 C.3   216  VAL216      0.0020
     27  N         90.5130  -23.7610   24.7180 N.am  217  SER217     -0.1952
     28  CA        91.9320  -24.0960   24.6490 C.3   217  SER217      0.1924
     29  C         92.6010  -23.4210   23.4770 C.2   217  SER217      0.2314
     30  O         93.5710  -22.6730   23.6710 O.2   217  SER217     -0.2863
     31  CB        92.1610  -25.6170   24.5850 C.3   217  SER217      0.2116
     32  OG        93.5540  -25.8960   24.4670 O.3   217  SER217     -0.2180
     33  N         91.9210  -21.3620   19.7930 N.3   219  MET219     -0.1230
     34  CA        90.8920  -20.7080   18.9470 C.3   219  MET219      0.1702
     35  C         91.5920  -20.0240   17.8120 C.2   219  MET219      0.2592
     36  O         92.5060  -19.2090   18.0340 O.2   219  MET219     -0.2718
     37  CB        90.0940  -19.6660   19.7480 C.3   219  MET219      0.0401
     38  CG        88.9550  -18.9740   18.9360 C.3   219  MET219      0.0596
     39  SD        88.1990  -17.6550   19.8770 S.3   219  MET219     -0.1393
     40  CE        86.7670  -17.3300   18.8630 C.3   219  MET219      0.0692
     41  N         91.1640  -20.3190   16.5920 N.am  220  LEU220     -0.1966
     42  CA        91.8020  -19.6530   15.4510 C.3   220  LEU220      0.1728
     43  C         90.8230  -19.3240   14.3190 C.2   220  LEU220      0.2616
     44  O         90.0960  -20.1940   13.8580 O.2   220  LEU220     -0.2715
     45  CB        92.9970  -20.4960   14.9360 C.3   220  LEU220      0.0311
     46  CG        93.6920  -20.0270   13.6370 C.3   220  LEU220      0.0022
     47  CD1       94.4690  -18.7380   13.8530 C.3   220  LEU220      0.0001
     48  CD2       94.6050  -21.1160   13.0720 C.3   220  LEU220      0.0001
     49  N         90.8060  -18.0550   13.9060 N.am  221  ILE221     -0.1977
     50  CA        90.1190  -17.6280   12.6840 C.3   221  ILE221      0.1596
     51  C         91.2670  -17.3800   11.7250 C.2   221  ILE221      0.2287
     52  O         92.1690  -16.5630   12.0030 O.2   221  ILE221     -0.2864
     53  CB        89.3010  -16.3370   12.8990 C.3   221  ILE221      0.0276
     54  CG1       88.2460  -16.5490   13.9940 C.3   221  ILE221      0.0022
     55  CG2       88.7350  -15.7570   11.5310 C.3   221  ILE221      0.0022
     56  CD1       87.3020  -17.7780   13.8060 C.3   221  ILE221      0.0001
     57  N         90.1300  -14.2580    7.0300 N.3   225  PHE225     -0.1227
     58  CA        88.7840  -14.0330    7.5830 C.3   225  PHE225      0.1736
     59  C         88.7620  -13.2320    8.9010 C.2   225  PHE225      0.2595
     60  O         87.6990  -13.0500    9.4970 O.2   225  PHE225     -0.2718
     61  CB        88.0640  -15.3950    7.8080 C.3   225  PHE225      0.0547
     62  CG        88.1240  -16.3090    6.6010 C.ar  225  PHE225     -0.0202
     63  CD1       87.2860  -16.0970    5.4890 C.ar  225  PHE225     -0.0042
     64  CD2       89.0250  -17.3530    6.5660 C.ar  225  PHE225     -0.0042
     65  CE1       87.3530  -16.9330    4.3640 C.ar  225  PHE225     -0.0003
     66  CE2       89.1090  -18.2010    5.4600 C.ar  225  PHE225     -0.0003
     67  CZ        88.2810  -17.9940    4.3530 C.ar  225  PHE225     -0.0000
     68  N         89.9300  -12.8130    9.3850 N.am  226  GLN226     -0.1965
     69  CA        90.0030  -12.1340   10.6820 C.3   226  GLN226      0.1733
     70  C         89.3780  -10.7200   10.6300 C.2   226  GLN226      0.2617
     71  O         89.2920  -10.0920    9.5650 O.2   226  GLN226     -0.2715
     72  CB        91.4620  -12.0610   11.1610 C.3   226  GLN226      0.0408
     73  CG        92.0120  -13.3710   11.6980 C.3   226  GLN226      0.0908
     74  CD        93.4930  -13.2990   12.0950 C.2   226  GLN226      0.2608
     75  OE1       94.0630  -12.1880   12.2090 O.2   226  GLN226     -0.2717
     76  NE2       94.1280  -14.4810   12.3390 N.am  226  GLN226     -0.0878
     77  N         88.9570  -10.2180   11.7820 N.am  227  GLY227     -0.1940
     78  CA        88.3750   -8.8610   11.8940 C.3   227  GLY227      0.2014
     79  C         87.1040   -8.6150   11.1120 C.2   227  GLY227      0.2639
     80  O         86.8440   -7.4740   10.6810 O.2   227  GLY227     -0.2714
     81  N         86.3240   -9.6710   10.8990 N.am  228  GLN228     -0.1963
     82  CA        85.0820   -9.6230   10.1340 C.3   228  GLN228      0.1733
     83  C         83.8870  -10.1600   10.9560 C.2   228  GLN228      0.2617
     84  O         82.7600  -10.2950   10.4710 O.2   228  GLN228     -0.2715
     85  CB        85.2590  -10.3640    8.8060 C.3   228  GLN228      0.0408
     86  CG        86.2630   -9.6530    7.8490 C.3   228  GLN228      0.0908
     87  CD        86.9590  -10.6090    6.8840 C.2   228  GLN228      0.2608
     88  OE1       86.3150  -11.2130    6.0560 O.2   228  GLN228     -0.2717
     89  NE2       88.2820  -10.7040    6.9730 N.am  228  GLN228     -0.0878
     90  N         84.1260  -10.3930   12.2400 N.am  229  GLY229     -0.1940
     91  CA        83.0420  -10.7740   13.1390 C.3   229  GLY229      0.2014
     92  C         82.9070  -12.2780   13.3960 C.2   229  GLY229      0.2639
     93  O         82.0040  -12.6790   14.1290 O.2   229  GLY229     -0.2714
     94  N         83.7500  -13.1070   12.7730 N.am  230  HIS230     -0.1959
     95  CA        83.6430  -14.5770   12.9040 C.3   230  HIS230      0.1787
     96  C         84.0390  -15.1150   14.2780 C.2   230  HIS230      0.2621
     97  O         83.3710  -16.0050   14.8000 O.2   230  HIS230     -0.2715
     98  CB        84.4440  -15.2930   11.8090 C.3   230  HIS230      0.0785
     99  CG        84.0470  -14.8470   10.4400 C.ar  230  HIS230      0.0821
    100  ND1       82.7550  -14.9580    9.9860 N.ar  230  HIS230     -0.2267
    101  CD2       84.7350  -14.2070    9.4720 C.ar  230  HIS230      0.1154
    102  CE1       82.6750  -14.4510    8.7710 C.ar  230  HIS230      0.1986
    103  NE2       83.8650  -13.9890    8.4360 N.ar  230  HIS230     -0.2212
    104  N         85.1170  -14.5640   14.8400 N.am  231  GLY231     -0.1940
    105  CA        85.5570  -14.9180   16.1800 C.3   231  GLY231      0.2014
    106  C         84.4150  -14.6740   17.1620 C.2   231  GLY231      0.2638
    107  O         84.1130  -15.5170   18.0240 O.2   231  GLY231     -0.2714
    108  N         83.7680  -13.5230   17.0310 N.am  232  ALA232     -0.1977
    109  CA        82.6800  -13.1670   17.9440 C.3   232  ALA232      0.1597
    110  C         81.4830  -14.1170   17.7960 C.2   232  ALA232      0.2287
    111  O         80.9440  -14.6120   18.8100 O.2   232  ALA232     -0.2864
    112  CB        82.2570  -11.7050   17.7340 C.3   232  ALA232      0.0319
    113  N         89.0720  -20.1870   29.8930 N.3   253  ALA253     -0.1231
    114  CA        90.0390  -20.3450   28.7880 C.3   253  ALA253      0.1694
    115  C         91.3930  -20.7440   29.3770 C.2   253  ALA253      0.2592
    116  O         91.6660  -20.4670   30.5540 O.2   253  ALA253     -0.2718
    117  CB        90.1700  -19.0150   27.9740 C.3   253  ALA253      0.0304
    118  N         92.2130  -21.3970   28.5540 N.am  254  GLU254     -0.1966
    119  CA        93.5730  -21.8170   28.8830 C.3   254  GLU254      0.1733
    120  C         94.5510  -20.7060   28.5130 C.2   254  GLU254      0.2616
    121  O         94.7280  -20.4150   27.3370 O.2   254  GLU254     -0.2715
    122  CB        93.9410  -23.0660   28.0670 C.3   254  GLU254      0.0429
    123  CG        95.3240  -23.6480   28.4170 C.3   254  GLU254      0.1163
    124  CD        95.7200  -24.8470   27.5450 C.2   254  GLU254      0.3649
    125  OE1       94.8630  -25.3910   26.8230 O.co2 254  GLU254     -0.2457
    126  OE2       96.9140  -25.2130   27.5410 O.co2 254  GLU254     -0.2457
    127  N         95.2130  -20.1050   29.4900 N.am  255  ASP255     -0.1958
    128  CA        96.2000  -19.0460   29.2090 C.3   255  ASP255      0.1825
    129  C         95.7650  -18.0500   28.1180 C.2   255  ASP255      0.2464
    130  O         96.4500  -17.9440   27.1020 O.2   255  ASP255     -0.2730
    131  CB        97.5340  -19.6650   28.7370 C.3   255  ASP255      0.1450
    132  CG        98.1860  -20.5760   29.7740 C.2   255  ASP255      0.3671
    133  OD1       98.0310  -20.3350   31.0020 O.co2 255  ASP255     -0.2456
    134  OD2       98.9000  -21.5240   29.3450 O.co2 255  ASP255     -0.2456
    135  N         94.6410  -17.3340   28.2970 N.am  256  PRO256     -0.2715
    136  CA        94.1490  -16.5380   27.1580 C.3   256  PRO256      0.1536
    137  C         95.0920  -15.3800   26.7630 C.2   256  PRO256      0.2599
    138  O         95.7060  -14.7650   27.6450 O.2   256  PRO256     -0.2715
    139  CB        92.8130  -15.9890   27.6800 C.3   256  PRO256      0.0310
    140  CG        92.9790  -15.9670   29.1700 C.3   256  PRO256      0.0237
    141  CD        93.7720  -17.2000   29.4800 C.3   256  PRO256      0.0939
    142  N         95.1870  -15.1040   25.4630 N.am  257  SER257     -0.1936
    143  CA        95.8900  -13.9130   24.9500 C.3   257  SER257      0.2055
    144  C         95.1110  -12.6110   25.2150 C.2   257  SER257      0.2643
    145  O         93.8980  -12.6310   25.4650 O.2   257  SER257     -0.2714
    146  CB        96.2640  -14.0780   23.4630 C.3   257  SER257      0.2130
    147  OG        95.1750  -13.8960   22.5650 O.3   257  SER257     -0.2179
    148  N         95.8340  -11.4910   25.2050 N.am  258  LYS258     -0.1963
    149  CA        95.2760  -10.1460   25.2550 C.3   258  LYS258      0.1728
    150  C         94.1500   -9.9430   24.2140 C.2   258  LYS258      0.2617
    151  O         93.0780   -9.4250   24.5400 O.2   258  LYS258     -0.2715
    152  CB        96.4140   -9.1370   24.9920 C.3   258  LYS258      0.0311
    153  CG        96.9860   -9.2240   23.5570 C.3   258  LYS258      0.0038
    154  CD        97.7140  -10.5550   23.2400 C.3   258  LYS258      0.0206
    155  CE        97.4390  -11.0360   21.7990 C.3   258  LYS258      0.1093
    156  NZ        98.3660  -12.1520   21.3760 N.3   258  LYS258     -0.1314
    157  N         94.3960  -10.3860   22.9780 N.am  259  SER259     -0.1936
    158  CA        93.4160  -10.2990   21.9020 C.3   259  SER259      0.2055
    159  C         92.1930  -11.2030   22.1850 C.2   259  SER259      0.2643
    160  O         91.0640  -10.8470   21.8450 O.2   259  SER259     -0.2714
    161  CB        94.0640  -10.6570   20.5570 C.3   259  SER259      0.2130
    162  OG        94.3420  -12.0500   20.4550 O.3   259  SER259     -0.2179
    163  N         92.4150  -12.3590   22.8220 N.am  260  TYR260     -0.1973
    164  CA        91.2930  -13.2210   23.1970 C.3   260  TYR260      0.1639
    165  C         90.4630  -12.5500   24.3030 C.2   260  TYR260      0.2290
    166  O         89.2340  -12.5170   24.2520 O.2   260  TYR260     -0.2864
    167  CB        91.7350  -14.6300   23.6320 C.3   260  TYR260      0.0560
    168  CG        90.5440  -15.4670   24.0370 C.ar  260  TYR260     -0.0198
    169  CD1       89.7620  -16.1150   23.0660 C.ar  260  TYR260     -0.0009
    170  CD2       90.1500  -15.5580   25.3680 C.ar  260  TYR260     -0.0009
    171  CE1       88.6450  -16.8850   23.4150 C.ar  260  TYR260      0.0417
    172  CE2       89.0250  -16.3320   25.7380 C.ar  260  TYR260      0.0417
    173  CZ        88.2810  -16.9940   24.7510 C.ar  260  TYR260      0.1957
    174  OH        87.1560  -17.7250   25.0610 O.3   260  TYR260     -0.2866
    175  N         90.1020   -9.4100   24.8800 N.3   262  LYS262     -0.1231
    176  CA        89.3580   -8.3280   24.2080 C.3   262  LYS262      0.1693
    177  C         88.1420   -8.8760   23.4850 C.2   262  LYS262      0.2591
    178  O         87.0320   -8.3330   23.6170 O.2   262  LYS262     -0.2718
    179  CB        90.2580   -7.5910   23.2160 C.3   262  LYS262      0.0285
    180  CG        90.9860   -6.3750   23.8300 C.3   262  LYS262      0.0035
    181  CD        92.3950   -6.2530   23.2390 C.3   262  LYS262      0.0206
    182  CE        93.2930   -5.3350   24.0740 C.3   262  LYS262      0.1093
    183  NZ        94.7530   -5.6810   23.9260 N.3   262  LYS262     -0.1314
    184  N         88.3520   -9.9340   22.7200 N.am  263  LEU263     -0.1980
    185  CA        87.2480  -10.6140   22.0300 C.3   263  LEU263      0.1596
    186  C         86.1790  -11.0770   23.0280 C.2   263  LEU263      0.2287
    187  O         84.9810  -10.8240   22.8290 O.2   263  LEU263     -0.2864
    188  CB        87.7430  -11.8240   21.2010 C.3   263  LEU263      0.0297
    189  CG        86.6080  -12.6850   20.5830 C.3   263  LEU263      0.0022
    190  CD1       85.8200  -11.8990   19.5370 C.3   263  LEU263      0.0001
    191  CD2       87.1220  -13.9540   19.9590 C.3   263  LEU263      0.0001
    192  N         84.1790   -8.2900   24.4390 N.3   266  PHE266     -0.1241
    193  CA        83.2050   -7.8490   23.4230 C.3   266  PHE266      0.1605
    194  C         81.9460   -8.7440   23.4250 C.2   266  PHE266      0.2264
    195  O         80.8120   -8.2390   23.4970 O.2   266  PHE266     -0.2867
    196  CB        83.8160   -7.8350   22.0120 C.3   266  PHE266      0.0534
    197  CG        82.8190   -7.4830   20.9270 C.ar  266  PHE266     -0.0203
    198  CD1       82.5290   -6.1460   20.6310 C.ar  266  PHE266     -0.0042
    199  CD2       82.1390   -8.4780   20.2370 C.ar  266  PHE266     -0.0042
    200  CE1       81.6090   -5.8220   19.6360 C.ar  266  PHE266     -0.0003
    201  CE2       81.2070   -8.1510   19.2550 C.ar  266  PHE266     -0.0003
    202  CZ        80.9530   -6.8220   18.9480 C.ar  266  PHE266     -0.0000
@<TRIPOS>BOND
     1    67    65   ar
     2    67    66   ar
     3    65    63   ar
     4    66    64   ar
     5    63    62   ar
     6    88    87    2
     7    64    62   ar
     8    62    61    1
     9    87    89   am
    10    87    86    1
    11    57    58    1
    12    58    61    1
    13    58    59    1
    14    86    85    1
    15   103   102   ar
    16   103   101   ar
    17   102   100   ar
    18    85    82    1
    19    59    68   am
    20    59    60    2
    21    68    69    1
    22   101    99   ar
    23    71    70    2
    24    11    10   ar
    25    11     9   ar
    26   100    99   ar
    27    82    81    1
    28    82    83    1
    29    10     8   ar
    30    99    98    1
    31    84    83    2
    32    70    69    1
    33    70    77   am
    34    80    79    2
    35    69    72    1
    36     9     7   ar
    37    81    79   am
    38    83    90   am
    39    79    78    1
    40    72    73    1
    41    55    53    1
    42     8     6   ar
    43    73    74    1
    44    51    52    2
    45    51    50    1
    46    77    78    1
    47    98    95    1
    48    74    75    2
    49    74    76   am
    50     7     6   ar
    51    90    91    1
    52     6     5    1
    53    50    53    1
    54    50    49    1
    55    94    95    1
    56    94    92   am
    57    53    54    1
    58    95    96    1
    59    48    46    1
    60    91    92    1
    61    92    93    2
    62    46    47    1
    63    46    45    1
    64    56    54    1
    65    44    43    2
    66    49    43   am
    67     5     2    1
    68    96    97    2
    69    96   104   am
    70    43    42    1
    71     1     2    1
    72   104   105    1
    73     2     3    1
    74    45    42    1
    75    42    41    1
    76   105   106    1
    77     3     4    2
    78     3    12   am
    79    41    35   am
    80   108   106   am
    81   108   109    1
    82    12    13    1
    83   106   107    2
    84   112   109    1
    85   110   109    1
    86   110   111    2
    87    35    36    2
    88    35    34    1
    89    13    16    1
    90    13    14    1
    91    17    16    1
    92    17    19    1
    93    15    14    2
    94    40    39    1
    95    38    37    1
    96    38    39    1
    97    34    37    1
    98    34    33    1
    99   202   201   ar
   100   202   200   ar
   101    16    18    1
   102   201   199   ar
   103   190   189    1
   104   200   198   ar
   105   191   189    1
   106   199   197   ar
   107   162   161    1
   108   161   158    1
   109   189   188    1
   110   198   197   ar
   111   197   196    1
   112   188   185    1
   113   156   155    1
   114   155   154    1
   115   160   159    2
   116   158   159    1
   117   158   157    1
   118   196   193    1
   119   185   184    1
   120   185   186    1
   121   159   163   am
   122   147   146    1
   123   184   177   am
   124   163   164    1
   125   187   186    2
   126   157   150   am
   127   169   171   ar
   128   169   168   ar
   129   164   167    1
   130   164   165    1
   131   179   180    1
   132   179   176    1
   133   181   180    1
   134   181   182    1
   135   154   153    1
   136   171   173   ar
   137   193   194    1
   138   193   192    1
   139   194   195    2
   140   146   143    1
   141    29    30    2
   142    29    28    1
   143   177   178    2
   144   177   176    1
   145   153   152    1
   146   167   168    1
   147    25    24    1
   148   183   182    1
   149   168   170   ar
   150   176   175    1
   151   150   151    2
   152   150   149    1
   153   166   165    2
   154    32    31    1
   155    31    28    1
   156    28    27    1
   157    27    22   am
   158   173   174    1
   159   173   172   ar
   160   143   144    1
   161   143   142    1
   162   152   149    1
   163    24    26    1
   164    24    21    1
   165   148   144   am
   166   148   149    1
   167   144   145    2
   168   170   172   ar
   169   142   137   am
   170    22    21    1
   171    22    23    2
   172    21    20    1
   173   137   136    1
   174   137   138    2
   175   125   124   ar
   176   130   129    2
   177   136   139    1
   178   136   135    1
   179   121   120    2
   180   126   124   ar
   181   124   123    1
   182   139   140    1
   183   117   114    1
   184   122   123    1
   185   122   119    1
   186   129   135   am
   187   129   128    1
   188   135   141    1
   189   120   119    1
   190   120   127   am
   191   118   119    1
   192   118   115   am
   193   131   128    1
   194   131   132    1
   195   114   115    1
   196   114   113    1
   197   140   141    1
   198   128   127    1
   199   134   132   ar
   200   115   116    2
   201   132   133   ar
