@<TRIPOS>MOLECULE
tmp/2p0xA00.pdb
 128 124 0 0 0
SMALL
GASTEIGER

@<TRIPOS>ATOM
      1  N         -5.1150    0.8020   -2.2880 N.3    17  ASP17      -0.1239
      2  CA        -5.5070    1.2850   -0.9680 C.3    17  ASP17       0.1674
      3  C         -4.4110    2.1650   -0.3780 C.2    17  ASP17       0.2266
      4  O         -3.2310    1.9910   -0.6810 O.2    17  ASP17      -0.2867
      5  CB        -5.7720    0.1030   -0.0340 C.3    17  ASP17       0.1410
      6  CG        -4.7330   -0.9860   -0.2680 C.2    17  ASP17       0.3668
      7  OD1       -4.2770   -1.1100   -1.3920 O.co2  17  ASP17      -0.2456
      8  OD2       -4.4060   -1.6790    0.6820 O.co2  17  ASP17      -0.2456
      9  N         -3.3670    4.6710    3.2940 N.3    19  ARG19      -0.1245
     10  CA        -3.5700    4.9850    4.6980 C.3    19  ARG19       0.1563
     11  C         -2.7380    6.2070    5.0810 C.2    19  ARG19       0.2260
     12  O         -1.9380    6.5500    4.4180 O.2    19  ARG19      -0.2867
     13  CB        -3.1720    3.7800    5.5480 C.3    19  ARG19       0.0307
     14  CG        -3.6450    3.9800    6.9890 C.3    19  ARG19       0.0489
     15  CD        -4.6400    2.8770    7.3580 C.3    19  ARG19       0.2205
     16  NE        -4.0460    1.5660    7.1250 N.pl3  19  ARG19      -0.0865
     17  CZ        -3.4780    0.8820    8.1150 C.cat  19  ARG19       0.5346
     18  NH1       -3.4460    1.3840    9.3200 N.pl3  19  ARG19       0.1354
     19  NH2       -2.9540   -0.2900    7.8850 N.pl3  19  ARG19       0.1354
     20  N         -0.0760    8.0260    7.7880 N.3    21  LYS21      -0.1245
     21  CA         0.8360    7.7530    8.8920 C.3    21  LYS21       0.1561
     22  C          1.4840    9.0370    9.4060 C.2    21  LYS21       0.2260
     23  O          2.4710    9.5170    8.8470 O.2    21  LYS21      -0.2867
     24  CB         1.9210    6.7770    8.4360 C.3    21  LYS21       0.0271
     25  CG         2.7950    6.3860    9.6300 C.3    21  LYS21       0.0035
     26  CD         2.8170    4.8620    9.7720 C.3    21  LYS21       0.0206
     27  CE         1.4970    4.3840   10.3790 C.3    21  LYS21       0.1093
     28  NZ         1.3790    2.9070   10.2090 N.3    21  LYS21      -0.1314
     29  N          0.4880    6.5700    3.4960 N.3    26  ARG26      -0.1245
     30  CA         0.9260    5.2180    3.2050 C.3    26  ARG26       0.1563
     31  C          0.0720    4.5890    2.1180 C.2    26  ARG26       0.2260
     32  O         -1.0220    4.5070    2.1580 O.2    26  ARG26      -0.2867
     33  CB         0.8590    4.3560    4.4630 C.3    26  ARG26       0.0307
     34  CG         1.6770    3.0730    4.2490 C.3    26  ARG26       0.0489
     35  CD         2.6360    2.8370    5.4220 C.3    26  ARG26       0.2205
     36  NE         1.9910    2.0130    6.4380 N.pl3  26  ARG26      -0.0865
     37  CZ         2.5480    1.8290    7.6290 C.cat  26  ARG26       0.5346
     38  NH1        3.6860    2.4000    7.9130 N.pl3  26  ARG26       0.1354
     39  NH2        1.9560    1.0780    8.5150 N.pl3  26  ARG26       0.1354
     40  N         -0.3750    1.2340   -0.6480 N.3    28  TYR28      -0.1227
     41  CA        -0.2090   -0.2140   -0.6980 C.3    28  TYR28       0.1736
     42  C          0.0400   -0.6690   -2.1340 C.2    28  TYR28       0.2595
     43  O         -0.2640    0.0540   -3.0830 O.2    28  TYR28      -0.2718
     44  CB        -1.4600   -0.8960   -0.1470 C.3    28  TYR28       0.0548
     45  CG        -1.5020   -0.7350    1.3550 C.ar   28  TYR28      -0.0200
     46  CD1       -0.5130   -1.3280    2.1510 C.ar   28  TYR28      -0.0009
     47  CD2       -2.5250    0.0110    1.9530 C.ar   28  TYR28      -0.0009
     48  CE1       -0.5490   -1.1760    3.5430 C.ar   28  TYR28       0.0417
     49  CE2       -2.5620    0.1620    3.3440 C.ar   28  TYR28       0.0417
     50  CZ        -1.5730   -0.4310    4.1390 C.ar   28  TYR28       0.1957
     51  OH        -1.6080   -0.2810    5.5110 O.3    28  TYR28      -0.2866
     52  N          0.5990   -1.8650   -2.2910 N.am   29  ASN29      -0.1960
     53  CA         0.8840   -2.3890   -3.6230 C.3    29  ASN29       0.1819
     54  C         -0.3390   -3.0950   -4.1990 C.2    29  ASN29       0.2621
     55  O         -0.3990   -3.3730   -5.3970 O.2    29  ASN29      -0.2715
     56  CB         2.0600   -3.3660   -3.5620 C.3    29  ASN29       0.1195
     57  CG         2.2630   -4.0230   -4.9230 C.2    29  ASN29       0.2630
     58  OD1        2.5170   -3.3370   -5.9130 O.2    29  ASN29      -0.2716
     59  ND2        2.1670   -5.3200   -5.0330 N.am   29  ASN29      -0.0877
     60  N         -1.3110   -3.3820   -3.3420 N.am   30  MET30      -0.1977
     61  CA        -2.5280   -4.0550   -3.7830 C.3    30  MET30       0.1605
     62  C         -3.7490   -3.4660   -3.0870 C.2    30  MET30       0.2287
     63  O         -3.7180   -3.1930   -1.8890 O.2    30  MET30      -0.2864
     64  CB        -2.4390   -5.5510   -3.4760 C.3    30  MET30       0.0413
     65  CG        -1.2670   -6.1660   -4.2470 C.3    30  MET30       0.0598
     66  SD         0.1890   -6.2400   -3.1770 S.3    30  MET30      -0.1393
     67  CE        -0.4010   -7.5510   -2.0770 C.3    30  MET30       0.0692
     68  N         -5.7310   -7.1660   -2.0130 N.3    35  PHE35      -0.1241
     69  CA        -4.8650   -7.2640   -0.8440 C.3    35  PHE35       0.1605
     70  C         -5.2340   -8.4970   -0.0380 C.2    35  PHE35       0.2264
     71  O         -4.3790   -9.3190    0.2910 O.2    35  PHE35      -0.2867
     72  CB        -5.0080   -6.0160    0.0280 C.3    35  PHE35       0.0534
     73  CG        -4.4690   -6.3100    1.4070 C.ar   35  PHE35      -0.0203
     74  CD1       -3.1420   -6.7290    1.5620 C.ar   35  PHE35      -0.0042
     75  CD2       -5.2940   -6.1680    2.5270 C.ar   35  PHE35      -0.0042
     76  CE1       -2.6400   -7.0060    2.8390 C.ar   35  PHE35      -0.0003
     77  CE2       -4.7940   -6.4460    3.8050 C.ar   35  PHE35      -0.0003
     78  CZ        -3.4660   -6.8640    3.9610 C.ar   35  PHE35      -0.0000
     79  N          3.6280   -8.1440   -1.5270 N.3    47  HIS47      -0.1226
     80  CA         3.4640   -7.4690   -0.2440 C.3    47  HIS47       0.1752
     81  C          4.4480   -6.3080   -0.1240 C.2    47  HIS47       0.2597
     82  O          5.6370   -6.5140    0.1210 O.2    47  HIS47      -0.2718
     83  CB         3.6960   -8.4600    0.8990 C.3    47  HIS47       0.0759
     84  CG         5.0700   -9.0580    0.7720 C.ar   47  HIS47       0.0818
     85  ND1        5.4560   -9.7940   -0.3380 N.ar   47  HIS47      -0.2268
     86  CD2        6.1610   -9.0360    1.6050 C.ar   47  HIS47       0.1154
     87  CE1        6.7310  -10.1820   -0.1440 C.ar   47  HIS47       0.1986
     88  NE2        7.2090   -9.7460    1.0250 N.ar   47  HIS47      -0.2212
     89  N          3.9440   -5.0900   -0.2970 N.am   48  GLY48      -0.1942
     90  CA         4.7890   -3.9020   -0.2060 C.3    48  GLY48       0.2014
     91  C          3.9420   -2.6380   -0.0940 C.2    48  GLY48       0.2638
     92  O          2.8100   -2.5950   -0.5780 O.2    48  GLY48      -0.2714
     93  N          4.4960   -1.6110    0.5430 N.am   49  HIS49      -0.1973
     94  CA         3.7790   -0.3540    0.7080 C.3    49  HIS49       0.1656
     95  C          4.7240    0.8310    0.5420 C.2    49  HIS49       0.2291
     96  O          5.9420    0.6870    0.6480 O.2    49  HIS49      -0.2864
     97  CB         3.1070   -0.2970    2.0820 C.3    49  HIS49       0.0771
     98  CG         4.0790   -0.7350    3.1450 C.ar   49  HIS49       0.0820
     99  ND1        5.1510   -1.5740    2.8760 N.ar   49  HIS49      -0.2267
    100  CD2        4.1590   -0.4490    4.4860 C.ar   49  HIS49       0.1154
    101  CE1        5.8230   -1.7570    4.0270 C.ar   49  HIS49       0.1986
    102  NE2        5.2590   -1.0930    5.0400 N.ar   49  HIS49      -0.2212
    103  N          8.9500    0.6290    1.0990 N.3    60  GLU60      -0.1231
    104  CA         9.2120   -0.4590    2.0290 C.3    60  GLU60       0.1699
    105  C          8.6050   -1.7550    1.5100 C.2    60  GLU60       0.2592
    106  O          7.5410   -2.1800    1.9580 O.2    60  GLU60      -0.2718
    107  CB         8.6390   -0.1290    3.4110 C.3    60  GLU60       0.0402
    108  CG         7.3590    0.6940    3.2560 C.3    60  GLU60       0.1161
    109  CD         6.7590    0.9850    4.6290 C.2    60  GLU60       0.3649
    110  OE1        7.4150    0.6920    5.6150 O.co2  60  GLU60      -0.2457
    111  OE2        5.6530    1.4980    4.6730 O.co2  60  GLU60      -0.2457
    112  N          9.2950   -2.3780    0.5600 N.am   61  PHE61      -0.1976
    113  CA         8.8210   -3.6290   -0.0200 C.3    61  PHE61       0.1639
    114  C          9.4540   -4.8240    0.6880 C.2    61  PHE61       0.2290
    115  O          9.1540   -5.0980    1.8500 O.2    61  PHE61      -0.2864
    116  CB         9.1580   -3.6740   -1.5130 C.3    61  PHE61       0.0560
    117  CG         8.0740   -2.9710   -2.2920 C.ar   61  PHE61      -0.0200
    118  CD1        7.9110   -1.5880   -2.1700 C.ar   61  PHE61      -0.0042
    119  CD2        7.2310   -3.7050   -3.1330 C.ar   61  PHE61      -0.0042
    120  CE1        6.9050   -0.9350   -2.8920 C.ar   61  PHE61      -0.0003
    121  CE2        6.2230   -3.0530   -3.8550 C.ar   61  PHE61      -0.0003
    122  CZ         6.0600   -1.6680   -3.7340 C.ar   61  PHE61      -0.0000
    123  N         10.8680   -6.8200    2.9720 N.3    63  SER63      -0.1217
    124  CA        11.3120   -6.5700    4.3390 C.3    63  SER63       0.1889
    125  C         11.2050   -7.8420    5.1780 C.2    63  SER63       0.2288
    126  O         10.7970   -7.7980    6.3380 O.2    63  SER63      -0.2866
    127  CB        10.4630   -5.4660    4.9710 C.3    63  SER63       0.2089
    128  OG         9.1170   -5.9130    5.0830 O.3    63  SER63      -0.2183
@<TRIPOS>BOND
     1    58    57    2
     2    55    54    2
     3    59    57   am
     4    57    56    1
     5    65    64    1
     6    65    66    1
     7    54    53    1
     8    54    60   am
     9   121   122   ar
    10   121   119   ar
    11    61    64    1
    12    61    60    1
    13    61    62    1
    14   122   120   ar
    15    53    56    1
    16    53    52    1
    17    66    67    1
    18   119   117   ar
    19    62    63    2
    20    43    42    2
    21   120   118   ar
    22   117   118   ar
    23   117   116    1
    24    52    42   am
    25     1     2    1
    26    42    41    1
    27    68    69    1
    28    79    80    1
    29   116   113    1
    30     7     6   ar
    31     2     3    1
    32     2     5    1
    33    69    70    1
    34    69    72    1
    35    41    40    1
    36    41    44    1
    37     4     3    2
    38    92    91    2
    39    85    87   ar
    40    85    84   ar
    41    89    90    1
    42    89    81   am
    43     6     5    1
    44     6     8   ar
    45    80    81    1
    46    80    83    1
    47    90    91    1
    48    44    45    1
    49    87    88   ar
    50    81    82    2
    51    91    93   am
    52    70    71    2
    53   113   112    1
    54   113   114    1
    55    72    73    1
    56    95    96    2
    57    95    94    1
    58    93    94    1
    59   112   105   am
    60   114   115    2
    61    94    97    1
    62    84    83    1
    63    84    86   ar
    64    88    86   ar
    65   103   104    1
    66    45    47   ar
    67    45    46   ar
    68    73    74   ar
    69    73    75   ar
    70   105   106    2
    71   105   104    1
    72    74    76   ar
    73    47    49   ar
    74   104   107    1
    75    97    98    1
    76    31    32    2
    77    31    30    1
    78    46    48   ar
    79    75    77   ar
    80    76    78   ar
    81    99    98   ar
    82    99   101   ar
    83   123   124    1
    84    98   100   ar
    85    30    29    1
    86    30    33    1
    87   108   107    1
    88   108   109    1
    89     9    10    1
    90    49    50   ar
    91    48    50   ar
    92    77    78   ar
    93   101   102   ar
    94    50    51    1
    95    34    33    1
    96    34    35    1
    97   124   127    1
    98   124   125    1
    99    12    11    2
   100   100   102   ar
   101   109   111   ar
   102   109   110   ar
   103    10    11    1
   104    10    13    1
   105   127   128    1
   106   125   126    2
   107    35    36    1
   108    13    14    1
   109    36    37    2
   110    14    15    1
   111    16    15    1
   112    16    17    2
   113    37    38    1
   114    37    39    1
   115    20    21    1
   116    19    17    1
   117    17    18    1
   118    24    21    1
   119    24    25    1
   120    23    22    2
   121    21    22    1
   122    25    26    1
   123    26    27    1
   124    28    27    1
