@<TRIPOS>MOLECULE
tmp/2p15A01.pdb
 207 195 0 0 0
SMALL
GASTEIGER

@<TRIPOS>ATOM
      1  N        -40.5500    8.4280   12.0260 N.3    35  MET35      -0.1230
      2  CA       -39.4830    8.4590   13.0000 C.3    35  MET35       0.1702
      3  C        -39.3280    7.0960   13.6900 C.2    35  MET35       0.2592
      4  O        -38.2100    6.6020   13.8370 O.2    35  MET35      -0.2718
      5  CB       -39.7180    9.5630   14.0440 C.3    35  MET35       0.0401
      6  CG       -38.6060    9.6110   15.1220 C.3    35  MET35       0.0596
      7  SD       -36.9680    9.7750   14.3510 S.3    35  MET35      -0.1393
      8  CE       -37.0130   11.5230   13.9760 C.3    35  MET35       0.0692
      9  N        -40.4340    6.4810   14.1010 N.am   36  MET36      -0.1979
     10  CA       -40.3210    5.1420   14.6980 C.3    36  MET36       0.1605
     11  C        -39.7530    4.1320   13.7070 C.2    36  MET36       0.2287
     12  O        -39.0020    3.2310   14.1080 O.2    36  MET36      -0.2864
     13  CB       -41.6510    4.6490   15.2610 C.3    36  MET36       0.0413
     14  CG       -42.0590    5.2620   16.6300 C.3    36  MET36       0.0598
     15  SD       -40.8620    5.0760   17.9800 S.3    36  MET36      -0.1393
     16  CE       -40.7220    3.2860   18.2130 C.3    36  MET36       0.0692
     17  N        -35.8920    4.7370   13.5140 N.3    39  LEU39      -0.1231
     18  CA       -35.2170    4.3030   14.7420 C.3    39  LEU39       0.1693
     19  C        -35.2310    2.7940   14.8760 C.2    39  LEU39       0.2592
     20  O        -34.2450    2.2350   15.3290 O.2    39  LEU39      -0.2718
     21  CB       -35.8590    4.9390   15.9690 C.3    39  LEU39       0.0284
     22  CG       -35.7070    6.4580   16.0890 C.3    39  LEU39       0.0019
     23  CD1      -36.1960    6.8630   17.4470 C.3    39  LEU39       0.0001
     24  CD2      -34.2540    6.8230   15.9500 C.3    39  LEU39       0.0001
     25  N        -36.3370    2.1450   14.5150 N.am   40  THR40      -0.1953
     26  CA       -36.4210    0.6800   14.6780 C.3    40  THR40       0.1897
     27  C        -35.7010   -0.0580   13.5320 C.2    40  THR40       0.2313
     28  O        -35.1850   -1.1680   13.7270 O.2    40  THR40      -0.2863
     29  CB       -37.8790    0.1720   14.8380 C.3    40  THR40       0.1794
     30  OG1      -38.6710    0.5430   13.6910 O.3    40  THR40      -0.2208
     31  CG2      -38.5220    0.7120   16.1510 C.3    40  THR40       0.0378
     32  N        -32.9690    1.1400   12.1710 N.3    42  LEU42      -0.1231
     33  CA       -31.5710    1.2770   12.6330 C.3    42  LEU42       0.1693
     34  C        -31.2450    0.2580   13.7450 C.2    42  LEU42       0.2591
     35  O        -30.2350   -0.4520   13.6700 O.2    42  LEU42      -0.2718
     36  CB       -31.3170    2.6950   13.1650 C.3    42  LEU42       0.0284
     37  CG       -29.9330    3.0890   13.6870 C.3    42  LEU42       0.0019
     38  CD1      -28.9060    2.8980   12.6030 C.3    42  LEU42       0.0001
     39  CD2      -29.9120    4.6080   14.1770 C.3    42  LEU42       0.0001
     40  N        -32.0810    0.2120   14.7790 N.am   43  ALA43      -0.1980
     41  CA       -31.8780   -0.7350   15.9010 C.3    43  ALA43       0.1597
     42  C        -31.7710   -2.1750   15.3790 C.2    43  ALA43       0.2287
     43  O        -30.9410   -2.9480   15.8440 O.2    43  ALA43      -0.2864
     44  CB       -33.0290   -0.6230   16.8990 C.3    43  ALA43       0.0319
     45  N        -28.3910   -2.6800   13.7230 N.3    46  GLU46      -0.1245
     46  CA       -27.3830   -2.7240   14.7810 C.3    46  GLU46       0.1567
     47  C        -27.3900   -4.0320   15.5440 C.2    46  GLU46       0.2260
     48  O        -26.3390   -4.5110   15.9480 O.2    46  GLU46      -0.2867
     49  CB       -27.5950   -1.5680   15.7610 C.3    46  GLU46       0.0388
     50  CG       -27.2050   -0.2210   15.1690 C.3    46  GLU46       0.1160
     51  CD       -27.2800    0.8490   16.2210 C.2    46  GLU46       0.3649
     52  OE1      -28.3840    1.4090   16.4390 O.co2  46  GLU46      -0.2457
     53  OE2      -26.2240    1.1040   16.8670 O.co2  46  GLU46      -0.2457
     54  N        -29.9470   -6.2030   25.3500 N.3    76  TRP76      -0.1227
     55  CA       -29.7450   -5.6070   24.0330 C.3    76  TRP76       0.1737
     56  C        -30.0670   -4.0990   24.0180 C.2    76  TRP76       0.2595
     57  O        -29.3610   -3.3210   23.3670 O.2    76  TRP76      -0.2718
     58  CB       -30.5630   -6.3170   22.9460 C.3    76  TRP76       0.0564
     59  CG       -32.0240   -6.2170   23.1290 C.ar   76  TRP76       0.0003
     60  CD1      -32.8160   -7.0250   23.8990 C.ar   76  TRP76       0.0946
     61  CD2      -32.8960   -5.2380   22.5490 C.ar   76  TRP76       0.0152
     62  NE1      -34.1130   -6.6270   23.8100 N.ar   76  TRP76      -0.2442
     63  CE2      -34.1980   -5.5320   22.9920 C.ar   76  TRP76       0.0810
     64  CE3      -32.7010   -4.1570   21.6740 C.ar   76  TRP76       0.0012
     65  CZ2      -35.3040   -4.7910   22.5990 C.ar   76  TRP76       0.0191
     66  CZ3      -33.8050   -3.4120   21.2840 C.ar   76  TRP76       0.0001
     67  CH2      -35.0850   -3.7190   21.7570 C.ar   76  TRP76       0.0015
     68  N        -31.1380   -3.6990   24.7010 N.am   77  LEU77      -0.1980
     69  CA       -31.5300   -2.2810   24.6690 C.3    77  LEU77       0.1596
     70  C        -30.5740   -1.4090   25.5220 C.2    77  LEU77       0.2287
     71  O        -30.2760   -0.2780   25.1640 O.2    77  LEU77      -0.2864
     72  CB       -32.9890   -2.0940   25.1040 C.3    77  LEU77       0.0297
     73  CG       -33.5360   -0.6240   24.9300 C.3    77  LEU77       0.0022
     74  CD1      -33.3150   -0.0640   23.5140 C.3    77  LEU77       0.0001
     75  CD2      -35.0020   -0.6030   25.2570 C.3    77  LEU77       0.0001
     76  N        -27.6220   -1.0000   23.1680 N.3    80  LEU80      -0.1231
     77  CA       -27.9590    0.0780   22.2070 C.3    80  LEU80       0.1693
     78  C        -27.8800    1.4550   22.8610 C.2    80  LEU80       0.2591
     79  O        -27.3250    2.3830   22.2730 O.2    80  LEU80      -0.2718
     80  CB       -29.3600   -0.1110   21.5320 C.3    80  LEU80       0.0284
     81  CG       -29.5120   -1.3200   20.5860 C.3    80  LEU80       0.0019
     82  CD1      -30.9110   -1.2230   19.9170 C.3    80  LEU80       0.0001
     83  CD2      -28.4630   -1.2760   19.5000 C.3    80  LEU80       0.0001
     84  N        -28.4610    1.6080   24.0570 N.am   81  MET81      -0.1979
     85  CA       -28.4590    2.9250   24.7180 C.3    81  MET81       0.1605
     86  C        -27.1010    3.4280   25.1180 C.2    81  MET81       0.2287
     87  O        -26.8290    4.6240   24.9640 O.2    81  MET81      -0.2864
     88  CB       -29.3930    2.9400   25.9340 C.3    81  MET81       0.0413
     89  CG       -30.8500    2.8610   25.5350 C.3    81  MET81       0.0598
     90  SD       -31.9680    2.7020   26.9650 S.3    81  MET81      -0.1393
     91  CE       -33.5060    3.2330   26.2190 C.3    81  MET81       0.0692
     92  N        -25.5030    4.7020   22.0590 N.3    84  LEU84      -0.1245
     93  CA       -26.1020    5.9950   21.6970 C.3    84  LEU84       0.1561
     94  C        -25.5610    7.1660   22.5560 C.2    84  LEU84       0.2260
     95  O        -25.1860    8.2140   22.0350 O.2    84  LEU84      -0.2867
     96  CB       -27.6280    5.9260   21.8510 C.3    84  LEU84       0.0270
     97  CG       -28.3690    7.2630   21.6870 C.3    84  LEU84       0.0019
     98  CD1      -28.1910    7.8330   20.2700 C.3    84  LEU84       0.0001
     99  CD2      -29.8660    7.1020   22.0220 C.3    84  LEU84       0.0001
    100  N        -21.9350    7.9230   21.5470 N.3    87  ARG87      -0.1245
    101  CA       -21.8670    8.7000   20.2740 C.3    87  ARG87       0.1563
    102  C        -22.2870   10.1580   20.4830 C.2    87  ARG87       0.2260
    103  O        -21.7910   11.0670   19.7880 O.2    87  ARG87      -0.2867
    104  CB       -22.8050    8.0830   19.2230 C.3    87  ARG87       0.0307
    105  CG       -22.3320    6.7350   18.7340 C.3    87  ARG87       0.0489
    106  CD       -23.0770    6.2960   17.4840 C.3    87  ARG87       0.2205
    107  NE       -24.5190    6.1460   17.6380 N.pl3  87  ARG87      -0.0865
    108  CZ       -25.1530    5.0560   18.1040 C.cat  87  ARG87       0.5346
    109  NH1      -24.4960    4.0090   18.5870 N.pl3  87  ARG87       0.1354
    110  NH2      -26.4860    5.0320   18.1260 N.pl3  87  ARG87       0.1354
    111  N        -29.0270   13.8100   20.5680 N.3    95  LEU95      -0.1245
    112  CA       -28.8170   12.3720   20.5370 C.3    95  LEU95       0.1561
    113  C        -28.4500   12.0030   19.1170 C.2    95  LEU95       0.2260
    114  O        -29.2240   12.2200   18.1740 O.2    95  LEU95      -0.2867
    115  CB       -30.0760   11.6130   20.9750 C.3    95  LEU95       0.0270
    116  CG       -30.4580   11.7640   22.4540 C.3    95  LEU95       0.0019
    117  CD1      -31.7380   10.9820   22.7740 C.3    95  LEU95       0.0001
    118  CD2      -29.3200   11.3030   23.3770 C.3    95  LEU95       0.0001
    119  N        -28.2610    9.3770   16.9540 N.3    97  PHE97      -0.1241
    120  CA       -28.6590    7.9950   16.6180 C.3    97  PHE97       0.1605
    121  C        -27.7820    7.4320   15.4980 C.2    97  PHE97       0.2264
    122  O        -27.3470    6.2690   15.5270 O.2    97  PHE97      -0.2867
    123  CB       -30.1510    7.9610   16.2520 C.3    97  PHE97       0.0534
    124  CG       -31.0590    8.0670   17.4730 C.ar   97  PHE97      -0.0203
    125  CD1      -31.3720    6.9170   18.2180 C.ar   97  PHE97      -0.0042
    126  CD2      -31.5390    9.3110   17.9050 C.ar   97  PHE97      -0.0042
    127  CE1      -32.1780    6.9940   19.3490 C.ar   97  PHE97      -0.0003
    128  CE2      -32.3640    9.4010   19.0740 C.ar   97  PHE97      -0.0003
    129  CZ       -32.6640    8.2490   19.7780 C.ar   97  PHE97      -0.0000
    130  N        -30.8990   14.1360   16.7240 N.3   103  LEU103     -0.1245
    131  CA       -32.1560   14.6710   17.2340 C.3   103  LEU103      0.1561
    132  C        -31.9570   15.6120   18.4350 C.2   103  LEU103      0.2260
    133  O        -31.1440   15.3500   19.3080 O.2   103  LEU103     -0.2867
    134  CB       -33.1260   13.5280   17.6040 C.3   103  LEU103      0.0270
    135  CG       -33.5050   12.5030   16.5330 C.3   103  LEU103      0.0019
    136  CD1      -34.6010   11.5960   17.1020 C.3   103  LEU103      0.0001
    137  CD2      -33.9420   13.1700   15.2470 C.3   103  LEU103      0.0001
    138  N        -42.3710   14.2500   17.5680 N.3   110  CYS110     -0.1221
    139  CA       -43.1630   13.6220   16.5340 C.3   110  CYS110      0.1808
    140  C        -43.6730   12.2460   16.9940 C.2   110  CYS110      0.2601
    141  O        -44.5520   11.6570   16.3490 O.2   110  CYS110     -0.2717
    142  CB       -42.3630   13.5420   15.2300 C.3   110  CYS110      0.0970
    143  SG       -40.8700   12.5320   15.3660 S.3   110  CYS110     -0.0800
    144  N        -43.1240   11.7620   18.1170 N.am  111  VAL111     -0.1979
    145  CA       -43.4920   10.4760   18.7260 C.3   111  VAL111      0.1595
    146  C        -44.0450   10.6720   20.1530 C.2   111  VAL111      0.2287
    147  O        -43.3900   11.2890   20.9930 O.2   111  VAL111     -0.2864
    148  CB       -42.2600    9.5250   18.7670 C.3   111  VAL111      0.0276
    149  CG1      -42.5890    8.2510   19.5060 C.3   111  VAL111      0.0022
    150  CG2      -41.7510    9.2560   17.3480 C.3   111  VAL111      0.0022
    151  N        -42.1740    9.6320   24.5420 N.3   114  MET114     -0.1245
    152  CA       -40.7390    9.4050   24.6380 C.3   114  MET114      0.1570
    153  C        -39.8980   10.5500   25.2190 C.2   114  MET114      0.2261
    154  O        -38.6860   10.4380   25.2920 O.2   114  MET114     -0.2867
    155  CB       -40.1930    8.9590   23.2780 C.3   114  MET114      0.0387
    156  CG       -40.4530    9.9330   22.1760 C.3   114  MET114      0.0595
    157  SD       -39.6920   11.5390   22.4520 S.3   114  MET114     -0.1393
    158  CE       -40.1900   12.3810   20.9370 C.3   114  MET114      0.0692
    159  N        -37.7920    9.5380   28.2840 N.3   117  ILE117     -0.1231
    160  CA       -36.6660    8.6760   27.8970 C.3   117  ILE117      0.1692
    161  C        -35.5990    9.5300   27.2040 C.2   117  ILE117      0.2592
    162  O        -34.4370    9.4240   27.5270 O.2   117  ILE117     -0.2718
    163  CB       -37.1110    7.4890   27.0140 C.3   117  ILE117      0.0266
    164  CG1      -38.0710    6.5760   27.8010 C.3   117  ILE117      0.0019
    165  CG2      -35.8780    6.6870   26.5150 C.3   117  ILE117      0.0020
    166  CD1      -38.9430    5.6690   26.8750 C.3   117  ILE117      0.0001
    167  N        -36.0220   10.4090   26.2850 N.am  118  PHE118     -0.1976
    168  CA       -35.1220   11.3630   25.6490 C.3   118  PHE118      0.1639
    169  C        -34.2750   12.1480   26.6870 C.2   118  PHE118      0.2290
    170  O        -33.0420   12.2290   26.5710 O.2   118  PHE118     -0.2864
    171  CB       -35.9260   12.3580   24.7850 C.3   118  PHE118      0.0560
    172  CG       -35.1040   13.0160   23.7070 C.ar  118  PHE118     -0.0200
    173  CD1      -35.3410   12.7390   22.3750 C.ar  118  PHE118     -0.0042
    174  CD2      -34.0800   13.8760   24.0290 C.ar  118  PHE118     -0.0042
    175  CE1      -34.5840   13.3320   21.3710 C.ar  118  PHE118     -0.0003
    176  CE2      -33.3000   14.4490   23.0490 C.ar  118  PHE118     -0.0003
    177  CZ       -33.5480   14.1750   21.7130 C.ar  118  PHE118     -0.0000
    178  N        -31.6580    9.9650   28.5260 N.3   121  LEU121     -0.1245
    179  CA       -30.5170    9.6500   27.6420 C.3   121  LEU121      0.1561
    180  C        -29.5720   10.8220   27.5620 C.2   121  LEU121      0.2260
    181  O        -28.3450   10.6510   27.6330 O.2   121  LEU121     -0.2867
    182  CB       -31.0280    9.2640   26.2390 C.3   121  LEU121      0.0270
    183  CG       -31.6240    7.8460   26.2010 C.3   121  LEU121      0.0019
    184  CD1      -32.3700    7.6070   24.8990 C.3   121  LEU121      0.0001
    185  CD2      -30.5240    6.7950   26.3160 C.3   121  LEU121      0.0001
    186  N        -37.6700    2.2820   28.0490 N.3   214  GLY214     -0.1225
    187  CA       -37.6620    2.1710   26.6030 C.3   214  GLY214      0.1811
    188  C        -38.3800    0.9180   26.1040 C.2   214  GLY214      0.2280
    189  O        -39.0200    0.9600   25.0610 O.2   214  GLY214     -0.2866
    190  N        -42.0060    1.5580   26.2120 N.3   217  HIS217     -0.1226
    191  CA       -42.3830    2.5070   25.1290 C.3   217  HIS217      0.1752
    192  C        -42.4810    1.7950   23.7760 C.2   217  HIS217      0.2595
    193  O        -43.4590    1.9790   23.0230 O.2   217  HIS217     -0.2718
    194  CB       -41.3980    3.6770   25.0110 C.3   217  HIS217      0.0759
    195  CG       -41.7530    4.6380   23.9100 C.ar  217  HIS217      0.0818
    196  ND1      -41.1740    4.5860   22.6620 N.ar  217  HIS217     -0.2268
    197  CD2      -42.6620    5.6420   23.8630 C.ar  217  HIS217      0.1154
    198  CE1      -41.6870    5.5400   21.9000 C.ar  217  HIS217      0.1986
    199  NE2      -42.6060    6.1850   22.6040 N.ar  217  HIS217     -0.2212
    200  N        -41.4610    1.0110   23.4600 N.am  218  LEU218     -0.1980
    201  CA       -41.4560    0.2030   22.2250 C.3   218  LEU218      0.1596
    202  C        -42.6630   -0.7380   22.1290 C.2   218  LEU218      0.2287
    203  O        -43.2680   -0.8810   21.0440 O.2   218  LEU218     -0.2864
    204  CB       -40.1580   -0.6080   22.1100 C.3   218  LEU218      0.0297
    205  CG       -39.9710   -1.3980   20.8100 C.3   218  LEU218      0.0022
    206  CD1      -40.1610   -0.5060   19.5510 C.3   218  LEU218      0.0001
    207  CD2      -38.6020   -2.0620   20.8470 C.3   218  LEU218      0.0001
@<TRIPOS>BOND
     1     1     2    1
     2    32    33    1
     3    38    37    1
     4    33    36    1
     5    33    34    1
     6     2     3    1
     7     2     5    1
     8    36    37    1
     9    17    18    1
    10    27    28    2
    11    27    26    1
    12    35    34    2
    13    37    39    1
    14     3     4    2
    15     3     9   am
    16    30    29    1
    17    11    12    2
    18    11    10    1
    19    45    46    1
    20    34    40   am
    21     8     7    1
    22     5     6    1
    23     9    10    1
    24     7     6    1
    25    25    26    1
    26    25    19   am
    27    26    29    1
    28    10    13    1
    29    18    19    1
    30    18    21    1
    31    40    41    1
    32    46    47    1
    33    46    49    1
    34    29    31    1
    35    19    20    2
    36    50    49    1
    37    50    51    1
    38   142   143    1
    39   142   139    1
    40   137   135    1
    41    13    14    1
    42    42    43    2
    43    42    41    1
    44   121   122    2
    45   121   120    1
    46    47    48    2
    47    41    44    1
    48    24    22    1
    49    21    22    1
    50    22    23    1
    51    51    52   ar
    52    51    53   ar
    53   123   120    1
    54   123   124    1
    55   141   140    2
    56   135   136    1
    57   135   134    1
    58   139   140    1
    59   139   138    1
    60   120   119    1
    61    14    15    1
    62   130   131    1
    63   140   144   am
    64   131   134    1
    65   131   132    1
    66   150   148    1
    67   124   126   ar
    68   124   125   ar
    69   106   107    1
    70   106   105    1
    71   107   108    2
    72   126   128   ar
    73    15    16    1
    74   108   110    1
    75   108   109    1
    76   144   145    1
    77   114   113    2
    78   125   127   ar
    79   132   133    2
    80   145   148    1
    81   145   146    1
    82   105   104    1
    83   148   149    1
    84   128   129   ar
    85   113   112    1
    86   104   101    1
    87   127   129   ar
    88    83    81    1
    89   206   205    1
    90   103   102    2
    91    82    81    1
    92   146   147    2
    93    98    97    1
    94   101   102    1
    95   101   100    1
    96   112   111    1
    97   112   115    1
    98    81    80    1
    99   205   207    1
   100   205   204    1
   101   158   157    1
   102   115   116    1
   103   203   202    2
   104    66    64   ar
   105    66    67   ar
   106   175   177   ar
   107   175   173   ar
   108    80    77    1
   109    64    61   ar
   110    97    96    1
   111    97    99    1
   112    93    96    1
   113    93    92    1
   114    93    94    1
   115   177   176   ar
   116    67    65   ar
   117   198   199   ar
   118   198   196   ar
   119    95    94    2
   120   204   201    1
   121   202   201    1
   122   156   157    1
   123   156   155    1
   124    77    78    1
   125    77    76    1
   126   201   200    1
   127    79    78    2
   128   173   172   ar
   129   116   117    1
   130   116   118    1
   131    61    63   ar
   132    61    59   ar
   133    65    63   ar
   134   199   197   ar
   135   196   195   ar
   136    78    84   am
   137    58    59    1
   138    58    55    1
   139    63    62   ar
   140   193   192    2
   141   176   174   ar
   142    59    60   ar
   143   155   152    1
   144    57    56    2
   145   200   192   am
   146    74    73    1
   147   172   174   ar
   148   172   171    1
   149   192   191    1
   150    62    60   ar
   151   197   195   ar
   152   195   194    1
   153    56    55    1
   154    56    68   am
   155    55    54    1
   156    84    85    1
   157   151   152    1
   158   152   153    1
   159    69    68    1
   160    69    72    1
   161    69    70    1
   162    85    86    1
   163    85    88    1
   164   171   168    1
   165   184   183    1
   166    73    72    1
   167    73    75    1
   168    87    86    2
   169   194   191    1
   170   189   188    2
   171   191   190    1
   172    71    70    2
   173   153   154    2
   174    89    88    1
   175    89    90    1
   176   168   167    1
   177   168   169    1
   178   188   187    1
   179   183   182    1
   180   183   185    1
   181    91    90    1
   182   182   179    1
   183   167   161   am
   184   165   163    1
   185   170   169    2
   186   187   186    1
   187   166   164    1
   188   163   164    1
   189   163   160    1
   190   161   162    2
   191   161   160    1
   192   180   181    2
   193   180   179    1
   194   179   178    1
   195   160   159    1
