@<TRIPOS>MOLECULE
tmp/2p18A00.pdb
 98 96 0 0 0
SMALL
GASTEIGER

@<TRIPOS>ATOM
      1  N         20.8770   20.8850   50.4920 N.3   157  PHE157     -0.1241
      2  CA        21.1040   20.6840   51.9180 C.3   157  PHE157      0.1605
      3  C         22.5220   20.1960   52.0610 C.2   157  PHE157      0.2264
      4  O         23.2100   19.9770   51.0480 O.2   157  PHE157     -0.2867
      5  CB        20.1280   19.5930   52.4450 C.3   157  PHE157      0.0534
      6  CG        18.6760   19.9520   52.2530 C.ar  157  PHE157     -0.0203
      7  CD1       18.0490   20.8660   53.1150 C.ar  157  PHE157     -0.0042
      8  CD2       17.9420   19.4060   51.2050 C.ar  157  PHE157     -0.0042
      9  CE1       16.7030   21.2270   52.9240 C.ar  157  PHE157     -0.0003
     10  CE2       16.6050   19.7490   51.0280 C.ar  157  PHE157     -0.0003
     11  CZ        15.9990   20.6980   51.8930 C.ar  157  PHE157     -0.0000
     12  N         19.6580   17.4840   48.3300 N.3   161  ILE161     -0.1231
     13  CA        18.8590   18.3900   47.4840 C.3   161  ILE161      0.1692
     14  C         17.4030   18.2730   47.8800 C.2   161  ILE161      0.2593
     15  O         16.9960   17.3050   48.5420 O.2   161  ILE161     -0.2718
     16  CB        18.9810   18.0790   45.9390 C.3   161  ILE161      0.0266
     17  CG1       18.7060   16.5810   45.6560 C.3   161  ILE161      0.0019
     18  CG2       20.3650   18.4710   45.4420 C.3   161  ILE161      0.0020
     19  CD1       18.4160   16.2560   44.1650 C.3   161  ILE161      0.0001
     20  N         16.6120   19.2710   47.4910 N.am  162  GLY162     -0.1942
     21  CA        15.1820   19.2700   47.8130 C.3   162  GLY162      0.2014
     22  C         14.3920   18.4500   46.8180 C.2   162  GLY162      0.2638
     23  O         14.8710   18.1400   45.7180 O.2   162  GLY162     -0.2714
     24  N         13.1790   18.1050   47.2100 N.am  163  ALA163     -0.1977
     25  CA        12.2660   17.3970   46.2900 C.3   163  ALA163      0.1597
     26  C         11.8830   18.3310   45.1170 C.2   163  ALA163      0.2287
     27  O         11.7590   19.5740   45.3010 O.2   163  ALA163     -0.2864
     28  CB        11.0430   16.9270   47.0510 C.3   163  ALA163      0.0319
     29  N         18.3710   18.1130   57.5170 N.3   202  TYR202     -0.1241
     30  CA        18.2440   16.8210   56.8220 C.3   202  TYR202      0.1605
     31  C         19.6170   16.1320   56.6430 C.2   202  TYR202      0.2264
     32  O         19.7260   15.1040   55.9600 O.2   202  TYR202     -0.2867
     33  CB        17.6130   16.9910   55.4310 C.3   202  TYR202      0.0534
     34  CG        16.1810   17.4840   55.3640 C.ar  202  TYR202     -0.0201
     35  CD1       15.2790   17.3330   56.4250 C.ar  202  TYR202     -0.0009
     36  CD2       15.7180   18.0700   54.1850 C.ar  202  TYR202     -0.0009
     37  CE1       13.9360   17.8000   56.3010 C.ar  202  TYR202      0.0417
     38  CE2       14.4130   18.5060   54.0490 C.ar  202  TYR202      0.0417
     39  CZ        13.5360   18.3890   55.0900 C.ar  202  TYR202      0.1957
     40  OH        12.2650   18.8760   54.8610 O.3   202  TYR202     -0.2866
     41  N         20.9560   12.4210   54.5090 N.3   206  PHE206     -0.1241
     42  CA        21.7440   12.5970   53.2890 C.3   206  PHE206      0.1605
     43  C         23.1800   12.0770   53.4250 C.2   206  PHE206      0.2264
     44  O         23.7460   11.5460   52.4720 O.2   206  PHE206     -0.2867
     45  CB        21.7260   14.0540   52.8540 C.3   206  PHE206      0.0534
     46  CG        20.4500   14.4540   52.1600 C.ar  206  PHE206     -0.0203
     47  CD1       19.6580   15.4670   52.6600 C.ar  206  PHE206     -0.0042
     48  CD2       20.0410   13.8090   51.0030 C.ar  206  PHE206     -0.0042
     49  CE1       18.4490   15.8420   52.0010 C.ar  206  PHE206     -0.0003
     50  CE2       18.8590   14.1900   50.3300 C.ar  206  PHE206     -0.0003
     51  CZ        18.0740   15.2080   50.8320 C.ar  206  PHE206     -0.0000
     52  N         23.1670    8.4070   53.0210 N.3   209  PHE209     -0.1241
     53  CA        23.0830    8.2440   51.5720 C.3   209  PHE209      0.1605
     54  C         24.4480    8.3660   50.8740 C.2   209  PHE209      0.2264
     55  O         24.8180    7.4740   50.1040 O.2   209  PHE209     -0.2867
     56  CB        22.0640    9.2240   50.9630 C.3   209  PHE209      0.0534
     57  CG        22.0070    9.1670   49.4720 C.ar  209  PHE209     -0.0203
     58  CD1       21.4170    8.0710   48.8180 C.ar  209  PHE209     -0.0042
     59  CD2       22.5690   10.1770   48.7130 C.ar  209  PHE209     -0.0042
     60  CE1       21.3790    8.0080   47.4130 C.ar  209  PHE209     -0.0003
     61  CE2       22.5340   10.1220   47.2990 C.ar  209  PHE209     -0.0003
     62  CZ        21.9410    9.0450   46.6590 C.ar  209  PHE209     -0.0000
     63  N         25.0130   14.9490   44.8120 N.3   256  PHE256     -0.1241
     64  CA        24.1600   15.6850   43.8510 C.3   256  PHE256      0.1605
     65  C         24.9090   16.8810   43.2870 C.2   256  PHE256      0.2264
     66  O         24.8420   17.1440   42.0900 O.2   256  PHE256     -0.2867
     67  CB        22.8670   16.1660   44.5060 C.3   256  PHE256      0.0534
     68  CG        22.1050   15.0750   45.2010 C.ar  256  PHE256     -0.0203
     69  CD1       22.3470   14.7910   46.5700 C.ar  256  PHE256     -0.0042
     70  CD2       21.1690   14.3050   44.4880 C.ar  256  PHE256     -0.0042
     71  CE1       21.6270   13.7830   47.2040 C.ar  256  PHE256     -0.0003
     72  CE2       20.4560   13.2930   45.1140 C.ar  256  PHE256     -0.0003
     73  CZ        20.7050   13.0180   46.4810 C.ar  256  PHE256     -0.0000
     74  N         20.3220    9.3240   41.2500 N.3   280  LEU280     -0.1231
     75  CA        20.5870    9.6720   42.6460 C.3   280  LEU280      0.1693
     76  C         19.2950   10.0650   43.3600 C.2   280  LEU280      0.2592
     77  O         19.1020    9.7500   44.5440 O.2   280  LEU280     -0.2718
     78  CB        21.5980   10.8190   42.7270 C.3   280  LEU280      0.0284
     79  CG        23.0470   10.5290   42.3250 C.3   280  LEU280      0.0019
     80  CD1       23.7880   11.8730   42.2680 C.3   280  LEU280      0.0001
     81  CD2       23.7460    9.5170   43.2450 C.3   280  LEU280      0.0001
     82  N         18.4320   10.7710   42.6400 N.am  281  TYR281     -0.1976
     83  CA        17.1420   11.2080   43.1670 C.3   281  TYR281      0.1639
     84  C         16.2620    9.9980   43.5670 C.2   281  TYR281      0.2290
     85  O         15.5520   10.0610   44.5630 O.2   281  TYR281     -0.2864
     86  CB        16.4320   12.0890   42.1410 C.3   281  TYR281      0.0560
     87  CG        15.1940   12.8100   42.6230 C.ar  281  TYR281     -0.0198
     88  CD1       15.2850   13.8670   43.5350 C.ar  281  TYR281     -0.0009
     89  CD2       13.9300   12.4810   42.1130 C.ar  281  TYR281     -0.0009
     90  CE1       14.1520   14.5560   43.9470 C.ar  281  TYR281      0.0417
     91  CE2       12.7790   13.1610   42.5300 C.ar  281  TYR281      0.0417
     92  CZ        12.8970   14.1990   43.4650 C.ar  281  TYR281      0.1957
     93  OH        11.7670   14.8950   43.8890 O.3   281  TYR281     -0.2866
     94  N         16.2470    5.9650   44.5540 N.3   283  ALA283     -0.1245
     95  CA        17.6180    6.3880   44.9190 C.3   283  ALA283      0.1562
     96  C         17.6920    7.2740   46.1630 C.2   283  ALA283      0.2260
     97  O         17.4760    6.7710   47.2780 O.2   283  ALA283     -0.2867
     98  CB        18.3480    6.9490   43.8040 C.3   283  ALA283      0.0290
@<TRIPOS>BOND
     1    74    75    1
     2    66    65    2
     3    89    91   ar
     4    89    87   ar
     5    86    87    1
     6    86    83    1
     7    80    79    1
     8    79    78    1
     9    79    81    1
    10    91    92   ar
    11    87    88   ar
    12    82    83    1
    13    82    76   am
    14    75    78    1
    15    75    76    1
    16    83    84    1
    17    65    64    1
    18    76    77    2
    19    92    93    1
    20    92    90   ar
    21    88    90   ar
    22    84    85    2
    23    98    95    1
    24    64    67    1
    25    64    63    1
    26    19    17    1
    27    70    72   ar
    28    70    68   ar
    29    67    68    1
    30    94    95    1
    31    95    96    1
    32    72    73   ar
    33    26    27    2
    34    26    25    1
    35    68    69   ar
    36    18    16    1
    37    17    16    1
    38    23    22    2
    39    16    13    1
    40    96    97    2
    41    25    28    1
    42    25    24    1
    43    73    71   ar
    44    69    71   ar
    45    62    61   ar
    46    62    60   ar
    47    22    24   am
    48    22    21    1
    49    61    59   ar
    50    60    58   ar
    51    13    14    1
    52    13    12    1
    53    20    21    1
    54    20    14   am
    55    14    15    2
    56    59    57   ar
    57    58    57   ar
    58    57    56    1
    59    55    54    2
    60    50    51   ar
    61    50    48   ar
    62     1     2    1
    63    51    49   ar
    64    54    53    1
    65    56    53    1
    66    48    46   ar
    67    10     8   ar
    68    10    11   ar
    69     4     3    2
    70     8     6   ar
    71    53    52    1
    72    11     9   ar
    73     2     3    1
    74     2     5    1
    75    49    47   ar
    76    46    47   ar
    77    46    45    1
    78     6     5    1
    79     6     7   ar
    80    44    43    2
    81    45    42    1
    82     9     7   ar
    83    42    43    1
    84    42    41    1
    85    38    36   ar
    86    38    39   ar
    87    36    34   ar
    88    40    39    1
    89    39    37   ar
    90    34    33    1
    91    34    35   ar
    92    33    30    1
    93    32    31    2
    94    37    35   ar
    95    31    30    1
    96    30    29    1
