@<TRIPOS>MOLECULE
tmp/2p1cA00.pdb
 244 228 0 0 0
SMALL
GASTEIGER

@<TRIPOS>ATOM
      1  N         59.2650   41.3000    3.6390 N.3    50  ARG50      -0.1245
      2  CA        59.5570   42.5530    2.9600 C.3    50  ARG50       0.1563
      3  C         58.2620   43.1510    2.4210 C.2    50  ARG50       0.2260
      4  O         58.0050   44.3420    2.5880 O.2    50  ARG50      -0.2867
      5  CB        60.5380   42.3230    1.8080 C.3    50  ARG50       0.0307
      6  CG        61.9030   41.8280    2.2340 C.3    50  ARG50       0.0489
      7  CD        62.8230   41.7610    1.0240 C.3    50  ARG50       0.2205
      8  NE        64.1220   41.1510    1.2960 N.pl3  50  ARG50      -0.0865
      9  CZ        64.2930   39.9770    1.8920 C.cat  50  ARG50       0.5346
     10  NH1       63.2500   39.2680    2.2980 N.pl3  50  ARG50       0.1354
     11  NH2       65.5150   39.4990    2.0640 N.pl3  50  ARG50       0.1354
     12  N         63.0830   39.7570   -4.8120 N.3    86  GLN86      -0.1245
     13  CA        63.7570   38.8000   -3.9480 C.3    86  GLN86       0.1566
     14  C         63.7290   37.4250   -4.6100 C.2    86  GLN86       0.2260
     15  O         64.6610   36.6310   -4.4680 O.2    86  GLN86      -0.2867
     16  CB        63.0510   38.7470   -2.5860 C.3    86  GLN86       0.0367
     17  CG        63.3560   37.5090   -1.7500 C.3    86  GLN86       0.0905
     18  CD        64.7160   37.5540   -1.0810 C.2    86  GLN86       0.2608
     19  OE1       65.7000   37.9940   -1.6730 O.2    86  GLN86      -0.2717
     20  NE2       64.7790   37.0790    0.1550 N.am   86  GLN86      -0.0878
     21  N         63.7780   36.9350   -7.7500 N.3    88  HIS88      -0.1226
     22  CA        64.7630   37.0840   -8.8150 C.3    88  HIS88       0.1752
     23  C         66.1820   36.8760   -8.2710 C.2    88  HIS88       0.2596
     24  O         66.9850   36.1410   -8.8480 O.2    88  HIS88      -0.2718
     25  CB        64.6140   38.4860   -9.4240 C.3    88  HIS88       0.0759
     26  CG        65.8300   38.9770  -10.1430 C.ar   88  HIS88       0.0818
     27  ND1       66.3040   38.3920  -11.2960 N.ar   88  HIS88      -0.2268
     28  CD2       66.6820   39.9900   -9.8570 C.ar   88  HIS88       0.1154
     29  CE1       67.3970   39.0210  -11.6880 C.ar   88  HIS88       0.1986
     30  NE2       67.6480   39.9940  -10.8320 N.ar   88  HIS88      -0.2212
     31  N         66.4790   37.5200   -7.1490 N.am   89  TYR89      -0.1962
     32  CA        67.7900   37.4070   -6.5330 C.3    89  TYR89       0.1771
     33  C         68.0840   35.9840   -6.1020 C.2    89  TYR89       0.2619
     34  O         69.1550   35.4520   -6.3920 O.2    89  TYR89      -0.2715
     35  CB        67.9040   38.3250   -5.3130 C.3    89  TYR89       0.0574
     36  CG        67.8360   39.8000   -5.6160 C.ar   89  TYR89      -0.0198
     37  CD1       68.4280   40.3300   -6.7620 C.ar   89  TYR89      -0.0009
     38  CD2       67.2370   40.6780   -4.7200 C.ar   89  TYR89      -0.0009
     39  CE1       68.4330   41.6990   -7.0020 C.ar   89  TYR89       0.0417
     40  CE2       67.2310   42.0490   -4.9500 C.ar   89  TYR89       0.0417
     41  CZ        67.8320   42.5530   -6.0910 C.ar   89  TYR89       0.1957
     42  OH        67.8360   43.9090   -6.3190 O.3    89  TYR89      -0.2866
     43  N         67.1300   35.3650   -5.4130 N.am   90  LEU90      -0.1977
     44  CA        67.3200   34.0010   -4.9360 C.3    90  LEU90       0.1596
     45  C         67.5040   32.9680   -6.0500 C.2    90  LEU90       0.2287
     46  O         68.3120   32.0470   -5.9060 O.2    90  LEU90      -0.2864
     47  CB        66.1770   33.5960   -3.9920 C.3    90  LEU90       0.0297
     48  CG        66.0940   34.4220   -2.6950 C.3    90  LEU90       0.0022
     49  CD1       65.1970   33.7120   -1.6920 C.3    90  LEU90       0.0001
     50  CD2       67.4740   34.6090   -2.0870 C.3    90  LEU90       0.0001
     51  N         68.8600   33.4360   -9.0600 N.3    92  GLU92      -0.1231
     52  CA        70.2240   33.6430   -9.5260 C.3    92  GLU92       0.1699
     53  C         71.2250   33.3170   -8.4210 C.2    92  GLU92       0.2592
     54  O         72.2680   32.7140   -8.6710 O.2    92  GLU92      -0.2718
     55  CB        70.4180   35.0910   -9.9890 C.3    92  GLU92       0.0402
     56  CG        69.3930   35.5940  -11.0080 C.3    92  GLU92       0.1161
     57  CD        69.2800   34.7210  -12.2570 C.2    92  GLU92       0.3649
     58  OE1       70.0240   33.7260  -12.3840 O.co2  92  GLU92      -0.2457
     59  OE2       68.4370   35.0340  -13.1210 O.co2  92  GLU92      -0.2457
     60  N         70.8960   33.7170   -7.1970 N.am   93  ASP93      -0.1974
     61  CA        71.7520   33.4650   -6.0400 C.3    93  ASP93       0.1709
     62  C         72.0470   31.9790   -5.8530 C.2    93  ASP93       0.2293
     63  O         73.2030   31.5880   -5.6950 O.2    93  ASP93      -0.2864
     64  CB        71.0950   34.0020   -4.7630 C.3    93  ASP93       0.1436
     65  CG        71.9570   33.7880   -3.5260 C.2    93  ASP93       0.3671
     66  OD1       72.9870   34.4840   -3.3800 O.co2  93  ASP93      -0.2456
     67  OD2       71.6100   32.9160   -2.7040 O.co2  93  ASP93      -0.2456
     68  N         74.4950   30.8180   -8.4960 N.3    96  MET96      -0.1230
     69  CA        75.8500   31.2800   -8.2230 C.3    96  MET96       0.1702
     70  C         76.4970   30.6060   -7.0320 C.2    96  MET96       0.2592
     71  O         77.7060   30.3610   -7.0310 O.2    96  MET96      -0.2718
     72  CB        75.8630   32.7920   -7.9890 C.3    96  MET96       0.0401
     73  CG        75.5300   33.6110   -9.2130 C.3    96  MET96       0.0596
     74  SD        75.6070   35.3620   -8.8660 S.3    96  MET96      -0.1393
     75  CE        73.9210   35.8310   -9.0010 C.3    96  MET96       0.0692
     76  N         75.6980   30.3130   -6.0150 N.am   97  ASP97      -0.1974
     77  CA        76.2230   29.6900   -4.8120 C.3    97  ASP97       0.1709
     78  C         76.1560   28.1720   -4.8410 C.2    97  ASP97       0.2293
     79  O         76.4690   27.5110   -3.8490 O.2    97  ASP97      -0.2864
     80  CB        75.4920   30.2350   -3.5860 C.3    97  ASP97       0.1436
     81  CG        75.5830   31.7480   -3.4810 C.2    97  ASP97       0.3671
     82  OD1       76.6410   32.3230   -3.8210 O.co2  97  ASP97      -0.2456
     83  OD2       74.5990   32.3690   -3.0430 O.co2  97  ASP97      -0.2456
     84  N         73.7470   26.1450   -4.6570 N.3    99  SER99      -0.1217
     85  CA        72.9340   25.6780   -3.5430 C.3    99  SER99       0.1889
     86  C         72.0750   24.4800   -3.9240 C.2    99  SER99       0.2288
     87  O         71.8590   24.2080   -5.1050 O.2    99  SER99      -0.2866
     88  CB        72.0560   26.8110   -3.0270 C.3    99  SER99       0.2089
     89  OG        72.8310   27.7230   -2.2750 O.3    99  SER99      -0.2183
     90  N         66.0860   25.4390   -1.1540 N.3   102  ARG102     -0.1245
     91  CA        65.5680   26.7760   -0.8930 C.3   102  ARG102      0.1563
     92  C         64.1280   26.6700   -0.3940 C.2   102  ARG102      0.2260
     93  O         63.2460   26.2130   -1.1210 O.2   102  ARG102     -0.2867
     94  CB        65.5880   27.6020   -2.1780 C.3   102  ARG102      0.0307
     95  CG        64.8240   28.9090   -2.0760 C.3   102  ARG102      0.0489
     96  CD        65.5610   29.8780   -1.1970 C.3   102  ARG102      0.2205
     97  NE        66.8380   30.2140   -1.8080 N.pl3 102  ARG102     -0.0865
     98  CZ        67.7990   30.9140   -1.2170 C.cat 102  ARG102      0.5346
     99  NH1       67.6400   31.3630    0.0190 N.pl3 102  ARG102      0.1354
    100  NH2       68.9200   31.1660   -1.8710 N.pl3 102  ARG102      0.1354
    101  N         62.5220   39.5090  -12.7500 N.3   127  LYS127     -0.1245
    102  CA        62.9070   40.9040  -12.5880 C.3   127  LYS127      0.1561
    103  C         62.0790   41.7870  -13.5240 C.2   127  LYS127      0.2260
    104  O         61.6830   42.8920  -13.1530 O.2   127  LYS127     -0.2867
    105  CB        64.4030   41.0680  -12.8890 C.3   127  LYS127      0.0271
    106  CG        65.0410   42.3420  -12.3460 C.3   127  LYS127      0.0035
    107  CD        66.3600   42.6110  -13.0670 C.3   127  LYS127      0.0206
    108  CE        67.2160   43.6570  -12.3660 C.3   127  LYS127      0.1093
    109  NZ        67.9460   43.0870  -11.1900 N.3   127  LYS127     -0.1314
    110  N         68.0810   48.1110   -6.5320 N.3   155  ASP155     -0.1239
    111  CA        68.3710   46.8770   -7.2440 C.3   155  ASP155      0.1674
    112  C         69.8310   46.9210   -7.6540 C.2   155  ASP155      0.2266
    113  O         70.5730   45.9480   -7.5030 O.2   155  ASP155     -0.2867
    114  CB        67.4980   46.7550   -8.4940 C.3   155  ASP155      0.1410
    115  CG        67.9120   45.5930   -9.3760 C.2   155  ASP155      0.3668
    116  OD1       67.9960   44.4560   -8.8700 O.co2 155  ASP155     -0.2456
    117  OD2       68.1590   45.8150  -10.5770 O.co2 155  ASP155     -0.2456
    118  N         72.2720   46.5160   -4.8770 N.3   158  THR158     -0.1203
    119  CA        72.2360   45.1270   -4.4200 C.3   158  THR158      0.1994
    120  C         73.1000   44.2550   -5.3270 C.2   158  THR158      0.2617
    121  O         73.7870   43.3480   -4.8550 O.2   158  THR158     -0.2717
    122  CB        70.7810   44.5920   -4.3810 C.3   158  THR158      0.1784
    123  OG1       70.0110   45.3900   -3.4760 O.3   158  THR158     -0.2211
    124  CG2       70.7450   43.1560   -3.9150 C.3   158  THR158      0.0376
    125  N         73.0660   44.5430   -6.6260 N.am  159  ALA159     -0.1979
    126  CA        73.8770   43.8110   -7.5890 C.3   159  ALA159      0.1597
    127  C         75.3400   44.0860   -7.2640 C.2   159  ALA159      0.2287
    128  O         76.1690   43.1760   -7.2850 O.2   159  ALA159     -0.2864
    129  CB        73.5550   44.2610   -9.0080 C.3   159  ALA159      0.0319
    130  N         76.5100   42.1620   -4.4930 N.3   162  GLN162     -0.1245
    131  CA        76.6950   40.7710   -4.8570 C.3   162  GLN162      0.1566
    132  C         78.0260   40.5940   -5.5620 C.2   162  GLN162      0.2260
    133  O         78.5470   39.4850   -5.6770 O.2   162  GLN162     -0.2867
    134  CB        75.5390   40.3000   -5.7300 C.3   162  GLN162      0.0367
    135  CG        74.7290   39.2060   -5.0750 C.3   162  GLN162      0.0905
    136  CD        75.3310   37.8360   -5.2850 C.2   162  GLN162      0.2608
    137  OE1       76.4810   37.7140   -5.6970 O.2   162  GLN162     -0.2717
    138  NE2       74.5540   36.7940   -5.0020 N.am  162  GLN162     -0.0878
    139  N         80.2660   40.2570   -2.5650 N.3   165  ASP165     -0.1239
    140  CA        80.0600   38.9460   -1.9540 C.3   165  ASP165      0.1674
    141  C         80.6740   37.8490   -2.8090 C.2   165  ASP165      0.2266
    142  O         81.4030   36.9970   -2.3050 O.2   165  ASP165     -0.2867
    143  CB        78.5520   38.6770   -1.7460 C.3   165  ASP165      0.1410
    144  CG        78.2410   37.2050   -1.4440 C.2   165  ASP165      0.3668
    145  OD1       78.4180   36.3620   -2.3470 O.co2 165  ASP165     -0.2456
    146  OD2       77.8210   36.8870   -0.3120 O.co2 165  ASP165     -0.2456
    147  N         74.6650   44.1690   -0.3530 N.3   202  LYS202     -0.1231
    148  CA        73.9630   43.0040   -0.8720 C.3   202  LYS202      0.1693
    149  C         72.6820   42.6490   -0.1140 C.2   202  LYS202      0.2592
    150  O         71.7910   42.0130   -0.6760 O.2   202  LYS202     -0.2718
    151  CB        74.8920   41.7860   -0.8690 C.3   202  LYS202      0.0285
    152  CG        74.9910   41.0870    0.4770 C.3   202  LYS202      0.0035
    153  CD        75.5690   39.6900    0.3390 C.3   202  LYS202      0.0206
    154  CE        75.5010   38.9330    1.6580 C.3   202  LYS202      0.1093
    155  NZ        75.9070   37.5010    1.5210 N.3   202  LYS202     -0.1314
    156  N         72.5860   43.0660    1.1470 N.am  203  THR203     -0.1953
    157  CA        71.4200   42.7520    1.9640 C.3   203  THR203      0.1897
    158  C         70.5920   43.9300    2.4640 C.2   203  THR203      0.2313
    159  O         69.4280   44.0590    2.1230 O.2   203  THR203     -0.2863
    160  CB        71.8410   41.9390    3.1890 C.3   203  THR203      0.1794
    161  OG1       72.6690   40.8480    2.7740 O.3   203  THR203     -0.2208
    162  CG2       70.6280   41.3890    3.9040 C.3   203  THR203      0.0378
    163  N         67.9360   46.4650   -0.0300 N.3   206  TYR206     -0.1241
    164  CA        66.7200   45.8710   -0.5650 C.3   206  TYR206      0.1605
    165  C         65.8520   45.1560    0.4730 C.2   206  TYR206      0.2264
    166  O         64.6470   45.0190    0.2830 O.2   206  TYR206     -0.2867
    167  CB        67.0780   44.9190   -1.7200 C.3   206  TYR206      0.0534
    168  CG        67.2900   43.4670   -1.3390 C.ar  206  TYR206     -0.0201
    169  CD1       66.2160   42.5850   -1.2560 C.ar  206  TYR206     -0.0009
    170  CD2       68.5630   42.9710   -1.0870 C.ar  206  TYR206     -0.0009
    171  CE1       66.4040   41.2440   -0.9360 C.ar  206  TYR206      0.0417
    172  CE2       68.7620   41.6330   -0.7670 C.ar  206  TYR206      0.0417
    173  CZ        67.6800   40.7740   -0.6950 C.ar  206  TYR206      0.1957
    174  OH        67.8720   39.4470   -0.3960 O.3   206  TYR206     -0.2866
    175  N         70.7290   41.5420   10.3440 N.3   241  PHE241     -0.1227
    176  CA        69.9350   40.5420    9.6330 C.3   241  PHE241      0.1736
    177  C         70.8330   39.5800    8.8630 C.2   241  PHE241      0.2595
    178  O         70.6030   38.3740    8.8540 O.2   241  PHE241     -0.2718
    179  CB        68.9850   41.2380    8.6540 C.3   241  PHE241      0.0547
    180  CG        68.1130   40.2960    7.8820 C.ar  241  PHE241     -0.0202
    181  CD1       66.9980   39.7220    8.4750 C.ar  241  PHE241     -0.0042
    182  CD2       68.4220   39.9630    6.5670 C.ar  241  PHE241     -0.0042
    183  CE1       66.1990   38.8320    7.7760 C.ar  241  PHE241     -0.0003
    184  CE2       67.6290   39.0680    5.8520 C.ar  241  PHE241     -0.0003
    185  CZ        66.5140   38.5000    6.4610 C.ar  241  PHE241     -0.0000
    186  N         71.8630   40.1230    8.2240 N.am  242  GLN242     -0.1979
    187  CA        72.7800   39.3000    7.4540 C.3   242  GLN242      0.1601
    188  C         73.7270   38.5110    8.3440 C.2   242  GLN242      0.2287
    189  O         74.1740   37.4250    7.9710 O.2   242  GLN242     -0.2864
    190  CB        73.5810   40.1550    6.4710 C.3   242  GLN242      0.0394
    191  CG        74.3980   39.3390    5.4820 C.3   242  GLN242      0.0908
    192  CD        73.5570   38.3340    4.7160 C.2   242  GLN242      0.2608
    193  OE1       72.5030   38.6700    4.1800 O.2   242  GLN242     -0.2717
    194  NE2       74.0280   37.0960    4.6540 N.am  242  GLN242     -0.0878
    195  N         71.8210   35.4340    9.1820 N.3   245  ASP245     -0.1225
    196  CA        71.8020   34.5040    8.0580 C.3   245  ASP245      0.1805
    197  C         73.0970   33.7010    8.0280 C.2   245  ASP245      0.2597
    198  O         73.0750   32.4910    7.8220 O.2   245  ASP245     -0.2718
    199  CB        71.6350   35.2620    6.7310 C.3   245  ASP245      0.1424
    200  CG        71.4390   34.3290    5.5460 C.2   245  ASP245      0.3668
    201  OD1       70.3930   33.6480    5.4910 O.co2 245  ASP245     -0.2456
    202  OD2       72.3330   34.2750    4.6760 O.co2 245  ASP245     -0.2456
    203  N         74.2210   34.3790    8.2540 N.am  246  ASP246     -0.1974
    204  CA        75.5330   33.7320    8.2450 C.3   246  ASP246      0.1709
    205  C         75.6970   32.6770    9.3300 C.2   246  ASP246      0.2293
    206  O         76.2820   31.6210    9.0860 O.2   246  ASP246     -0.2864
    207  CB        76.6540   34.7690    8.3840 C.3   246  ASP246      0.1436
    208  CG        76.8120   35.6470    7.1490 C.2   246  ASP246      0.3671
    209  OD1       76.0800   35.4420    6.1510 O.co2 246  ASP246     -0.2456
    210  OD2       77.6820   36.5480    7.1840 O.co2 246  ASP246     -0.2456
    211  N         73.3500   29.8230    8.6170 N.3   249  ASP249     -0.1239
    212  CA        73.8560   29.0380    7.4960 C.3   249  ASP249      0.1674
    213  C         74.7200   27.8810    7.9820 C.2   249  ASP249      0.2266
    214  O         74.8010   26.8360    7.3350 O.2   249  ASP249     -0.2867
    215  CB        74.6810   29.9250    6.5560 C.3   249  ASP249      0.1410
    216  CG        74.9230   29.2780    5.2020 C.2   249  ASP249      0.3668
    217  OD1       73.9790   29.2300    4.3950 O.co2 249  ASP249     -0.2456
    218  OD2       76.0510   28.8090    4.9410 O.co2 249  ASP249     -0.2456
    219  N         66.9220   25.4310    3.9710 N.3   259  LYS259     -0.1245
    220  CA        67.9880   25.4620    2.9740 C.3   259  LYS259      0.1561
    221  C         69.3100   24.9520    3.5310 C.2   259  LYS259      0.2260
    222  O         69.6070   25.1410    4.7130 O.2   259  LYS259     -0.2867
    223  CB        68.1690   26.8970    2.4720 C.3   259  LYS259      0.0271
    224  CG        68.4140   27.8840    3.5980 C.3   259  LYS259      0.0035
    225  CD        68.5760   29.3050    3.0950 C.3   259  LYS259      0.0206
    226  CE        68.7160   30.2530    4.2720 C.3   259  LYS259      0.1093
    227  NZ        69.0490   31.6370    3.8570 N.3   259  LYS259     -0.1314
    228  N         78.1680   28.4700    2.5610 N.3   263  ASP263     -0.1239
    229  CA        79.2250   29.4400    2.8610 C.3   263  ASP263      0.1674
    230  C         80.6030   28.8000    3.0630 C.2   263  ASP263      0.2266
    231  O         81.5980   29.2570    2.4930 O.2   263  ASP263     -0.2867
    232  CB        78.8670   30.2600    4.1070 C.3   263  ASP263      0.1410
    233  CG        77.7080   31.2130    3.8710 C.2   263  ASP263      0.3668
    234  OD1       77.2120   31.2820    2.7270 O.co2 263  ASP263     -0.2456
    235  OD2       77.2960   31.8990    4.8290 O.co2 263  ASP263     -0.2456
    236  N         82.9950   31.6300    1.5200 N.3   268  LYS268     -0.1245
    237  CA        82.4230   32.9610    1.6420 C.3   268  LYS268      0.1561
    238  C         82.9890   33.7610    2.8070 C.2   268  LYS268      0.2260
    239  O         83.3940   33.2040    3.8310 O.2   268  LYS268     -0.2867
    240  CB        80.8970   32.8650    1.7830 C.3   268  LYS268      0.0271
    241  CG        80.1780   32.5080    0.4960 C.3   268  LYS268      0.0035
    242  CD        80.2390   33.6510   -0.5130 C.3   268  LYS268      0.0206
    243  CE        79.6480   33.2310   -1.8530 C.3   268  LYS268      0.1093
    244  NZ        78.2980   32.6240   -1.6960 N.3   268  LYS268     -0.1314
@<TRIPOS>BOND
     1   103   104    2
     2   103   102    1
     3    59    57   ar
     4   107   108    1
     5   107   106    1
     6   105   102    1
     7   105   106    1
     8   101   102    1
     9    58    57   ar
    10   108   109    1
    11    57    56    1
    12    29    27   ar
    13    29    30   ar
    14    27    26   ar
    15    56    55    1
    16    30    28   ar
    17   117   115   ar
    18    26    28   ar
    19    26    25    1
    20    55    52    1
    21    52    51    1
    22    52    53    1
    23    25    22    1
    24   115   116   ar
    25   115   114    1
    26    73    74    1
    27    73    72    1
    28   129   126    1
    29    75    74    1
    30    24    23    2
    31    22    23    1
    32    22    21    1
    33    54    53    2
    34    68    69    1
    35   114   111    1
    36    53    60   am
    37    23    31   am
    38    69    72    1
    39    69    70    1
    40   112   113    2
    41   112   111    1
    42   126   127    1
    43   126   125    1
    44   128   127    2
    45   111   110    1
    46    60    61    1
    47    31    32    1
    48    70    71    2
    49    70    76   am
    50    39    37   ar
    51    39    41   ar
    52    37    36   ar
    53   125   120   am
    54    32    33    1
    55    32    35    1
    56    34    33    2
    57    42    41    1
    58    33    43   am
    59    41    40   ar
    60    45    46    2
    61    45    44    1
    62    61    62    1
    63    61    64    1
    64    76    77    1
    65    62    63    2
    66   134   135    1
    67   134   131    1
    68   137   136    2
    69   133   132    2
    70    36    35    1
    71    36    38   ar
    72   132   131    1
    73    43    44    1
    74   120   121    2
    75   120   119    1
    76   136   135    1
    77   136   138   am
    78    87    86    2
    79    40    38   ar
    80    44    47    1
    81   118   119    1
    82   131   130    1
    83    78    77    1
    84    78    79    2
    85    12    13    1
    86    77    80    1
    87    64    65    1
    88    84    85    1
    89    14    15    2
    90    14    13    1
    91   119   122    1
    92   122   124    1
    93   122   123    1
    94    47    48    1
    95    13    16    1
    96    86    85    1
    97    82    81   ar
    98    80    81    1
    99    85    88    1
   100    65    66   ar
   101    65    67   ar
   102    81    83   ar
   103    88    89    1
   104   141   142    2
   105   141   140    1
   106    48    50    1
   107    48    49    1
   108    16    17    1
   109   139   140    1
   110   145   144   ar
   111    94    95    1
   112    94    91    1
   113    95    96    1
   114   140   143    1
   115   100    98    1
   116   243   244    1
   117   243   242    1
   118    97    98    2
   119    97    96    1
   120    17    18    1
   121   143   144    1
   122   167   168    1
   123   167   164    1
   124    19    18    2
   125   144   146   ar
   126   168   169   ar
   127   168   170   ar
   128   169   171   ar
   129    98    99    1
   130    90    91    1
   131    93    92    2
   132   170   172   ar
   133    18    20   am
   134   171   173   ar
   135    91    92    1
   136   148   151    1
   137   148   147    1
   138   148   149    1
   139   151   152    1
   140   172   173   ar
   141   173   174    1
   142   150   149    2
   143   164   163    1
   144   164   165    1
   145   242   241    1
   146   149   156   am
   147   166   165    2
   148   153   152    1
   149   153   154    1
   150   241   240    1
   151     7     8    1
   152     7     6    1
   153   156   157    1
   154     8     9    2
   155   236   237    1
   156   155   154    1
   157   237   240    1
   158   237   238    1
   159     5     6    1
   160     5     2    1
   161     9    11    1
   162     9    10    1
   163   157   158    1
   164   157   160    1
   165   159   158    2
   166     3     4    2
   167     3     2    1
   168   223   220    1
   169   223   224    1
   170   231   230    2
   171   228   229    1
   172   234   233   ar
   173   161   160    1
   174   238   239    2
   175   229   230    1
   176   229   232    1
   177     2     1    1
   178   220   221    1
   179   220   219    1
   180   225   224    1
   181   225   226    1
   182   160   162    1
   183   221   222    2
   184   227   226    1
   185   233   232    1
   186   233   235   ar
   187   193   192    2
   188   217   216   ar
   189   194   192   am
   190   202   200   ar
   191   192   191    1
   192   218   216   ar
   193   216   215    1
   194   191   190    1
   195   201   200   ar
   196   200   199    1
   197   184   185   ar
   198   184   182   ar
   199   209   208   ar
   200   185   183   ar
   201   190   187    1
   202   215   212    1
   203   182   180   ar
   204   199   196    1
   205   208   210   ar
   206   208   207    1
   207   214   213    2
   208   187   186    1
   209   187   188    1
   210   212   213    1
   211   212   211    1
   212   183   181   ar
   213   198   197    2
   214   180   181   ar
   215   180   179    1
   216   189   188    2
   217   197   196    1
   218   197   203   am
   219   196   195    1
   220   186   177   am
   221   204   203    1
   222   204   207    1
   223   204   205    1
   224   179   176    1
   225   178   177    2
   226   177   176    1
   227   206   205    2
   228   176   175    1
