@<TRIPOS>MOLECULE
tmp/2p1dA01.pdb
 107 102 0 0 0
SMALL
GASTEIGER

@<TRIPOS>ATOM
      1  N          8.6700  -48.2920   23.1750 N.3     8  LYS8       -0.1245
      2  CA        10.0250  -48.0830   22.6520 C.3     8  LYS8        0.1561
      3  C         11.0900  -48.6100   23.6100 C.2     8  LYS8        0.2260
      4  O         12.0980  -49.1790   23.1800 O.2     8  LYS8       -0.2867
      5  CB        10.2620  -46.5960   22.3740 C.3     8  LYS8        0.0271
      6  CG        11.5970  -46.2720   21.6900 C.3     8  LYS8        0.0035
      7  CD        11.6640  -46.8070   20.2670 C.3     8  LYS8        0.0206
      8  CE        12.9630  -46.3930   19.5890 C.3     8  LYS8        0.1093
      9  NZ        13.0510  -46.8120   18.1630 N.3     8  LYS8       -0.1314
     10  N         10.8660  -52.3350   23.7370 N.3    11  LEU11      -0.1231
     11  CA        11.4640  -52.7500   22.4760 C.3    11  LEU11       0.1693
     12  C         12.9630  -52.8540   22.7050 C.2    11  LEU11       0.2592
     13  O         13.5610  -53.9130   22.5070 O.2    11  LEU11      -0.2718
     14  CB        11.1830  -51.7310   21.3590 C.3    11  LEU11       0.0284
     15  CG        11.9000  -51.9650   20.0140 C.3    11  LEU11       0.0019
     16  CD1       11.5930  -53.3420   19.4780 C.3    11  LEU11       0.0001
     17  CD2       11.4660  -50.9210   19.0200 C.3    11  LEU11       0.0001
     18  N         13.5540  -51.7530   23.1600 N.am   12  ASN12      -0.1974
     19  CA        14.9880  -51.7010   23.4230 C.3    12  ASN12       0.1688
     20  C         15.5020  -52.6740   24.4910 C.2    12  ASN12       0.2292
     21  O         16.6350  -53.1450   24.4080 O.2    12  ASN12      -0.2864
     22  CB        15.4050  -50.2670   23.7730 C.3    12  ASN12       0.1181
     23  CG        15.4590  -49.3670   22.5480 C.2    12  ASN12       0.2629
     24  OD1       15.7900  -49.8270   21.4530 O.2    12  ASN12      -0.2716
     25  ND2       15.1520  -48.0820   22.7260 N.am   12  ASN12      -0.0877
     26  N         14.9540  -55.5150   24.7130 N.3    14  LEU14      -0.1231
     27  CA        14.8760  -56.8390   24.0930 C.3    14  LEU14       0.1693
     28  C         16.2380  -57.4210   23.7140 C.2    14  LEU14       0.2593
     29  O         17.1710  -56.6880   23.3810 O.2    14  LEU14      -0.2718
     30  CB        13.9700  -56.7730   22.8520 C.3    14  LEU14       0.0284
     31  CG        12.5970  -57.4650   22.8540 C.3    14  LEU14       0.0019
     32  CD1       11.9020  -57.2970   24.1910 C.3    14  LEU14       0.0001
     33  CD2       11.7500  -56.8830   21.7290 C.3    14  LEU14       0.0001
     34  N         16.3320  -58.7480   23.7670 N.am   15  GLY15      -0.1942
     35  CA        17.5640  -59.4310   23.4360 C.3    15  GLY15       0.2014
     36  C         17.6770  -59.7570   21.9620 C.2    15  GLY15       0.2638
     37  O         16.7180  -59.6360   21.1980 O.2    15  GLY15      -0.2714
     38  N         18.8750  -60.1730   21.5710 N.am   16  LYS16      -0.1977
     39  CA        19.1900  -60.5310   20.1940 C.3    16  LYS16       0.1596
     40  C         18.1200  -61.4190   19.5460 C.2    16  LYS16       0.2287
     41  O         17.4890  -61.0300   18.5630 O.2    16  LYS16      -0.2864
     42  CB        20.5570  -61.2400   20.1510 C.3    16  LYS16       0.0298
     43  CG        20.6470  -62.5610   20.9560 C.3    16  LYS16       0.0038
     44  CD        20.6090  -62.3540   22.4780 C.3    16  LYS16       0.0206
     45  CE        20.4170  -63.6810   23.2200 C.3    16  LYS16       0.1093
     46  NZ        19.0730  -64.2910   22.9420 N.3    16  LYS16      -0.1314
     47  N         14.1810  -59.8240   20.0680 N.3    19  PHE19      -0.1227
     48  CA        13.8910  -58.7670   19.1190 C.3    19  PHE19       0.1736
     49  C         13.5660  -59.2980   17.7210 C.2    19  PHE19       0.2595
     50  O         12.5090  -58.9990   17.1600 O.2    19  PHE19      -0.2718
     51  CB        15.0820  -57.8230   19.0300 C.3    19  PHE19       0.0547
     52  CG        14.8940  -56.7210   18.0460 C.ar   19  PHE19      -0.0202
     53  CD1       14.1420  -55.6060   18.3740 C.ar   19  PHE19      -0.0042
     54  CD2       15.4360  -56.8180   16.7710 C.ar   19  PHE19      -0.0042
     55  CE1       13.9290  -54.5970   17.4430 C.ar   19  PHE19      -0.0003
     56  CE2       15.2300  -55.8180   15.8310 C.ar   19  PHE19      -0.0003
     57  CZ        14.4750  -54.7050   16.1670 C.ar   19  PHE19      -0.0000
     58  N         14.4780  -60.0780   17.1560 N.am   20  GLN20      -0.1979
     59  CA        14.2670  -60.6220   15.8230 C.3    20  GLN20       0.1601
     60  C         12.9190  -61.3360   15.7100 C.2    20  GLN20       0.2287
     61  O         12.2420  -61.2170   14.6930 O.2    20  GLN20      -0.2864
     62  CB        15.3940  -61.5920   15.4480 C.3    20  GLN20       0.0394
     63  CG        16.8050  -60.9890   15.4050 C.3    20  GLN20       0.0908
     64  CD        16.9490  -59.7890   14.4590 C.2    20  GLN20       0.2608
     65  OE1       16.2720  -59.6980   13.4300 O.2    20  GLN20      -0.2717
     66  NE2       17.8570  -58.8750   14.8010 N.am   20  GLN20      -0.0878
     67  N         10.1050  -58.6730   16.0300 N.3    23  LYS23      -0.1245
     68  CA        10.1070  -57.8640   14.8130 C.3    23  LYS23       0.1561
     69  C          9.0900  -58.3350   13.7720 C.2    23  LYS23       0.2260
     70  O          8.5790  -57.5420   12.9770 O.2    23  LYS23      -0.2867
     71  CB        11.5040  -57.8640   14.1810 C.3    23  LYS23       0.0271
     72  CG        11.6750  -56.8530   13.0520 C.3    23  LYS23       0.0035
     73  CD        12.9830  -57.0640   12.3280 C.3    23  LYS23       0.0206
     74  CE        13.2080  -56.0190   11.2550 C.3    23  LYS23       0.1093
     75  NZ        13.5060  -54.6890   11.8400 N.3    23  LYS23      -0.1314
     76  N         15.5450  -44.8250   11.5840 N.3   144  SER144     -0.1202
     77  CA        15.2260  -45.2160   12.9460 C.3   144  SER144      0.2020
     78  C         16.4170  -45.1610   13.8920 C.2   144  SER144      0.2619
     79  O         17.5070  -45.6350   13.5700 O.2   144  SER144     -0.2717
     80  CB        14.6150  -46.6210   12.9670 C.3   144  SER144      0.2103
     81  OG        15.4840  -47.5750   12.3870 O.3   144  SER144     -0.2182
     82  N         16.1800  -44.5740   15.0650 N.am  145  SER145     -0.1938
     83  CA        17.1900  -44.4270   16.1070 C.3   145  SER145      0.2040
     84  C         16.6850  -45.0150   17.4110 C.2   145  SER145      0.2485
     85  O         15.5290  -44.8090   17.7830 O.2   145  SER145     -0.2729
     86  CB        17.5130  -42.9470   16.3370 C.3   145  SER145      0.2129
     87  OG        18.3370  -42.7690   17.4810 O.3   145  SER145     -0.2179
     88  N         17.5430  -45.7640   18.1190 N.am  146  PRO146     -0.2726
     89  CA        17.1710  -46.3770   19.3970 C.3   146  PRO146      0.1402
     90  C         16.6890  -45.2850   20.3460 C.2   146  PRO146      0.2269
     91  O         16.0350  -45.5520   21.3570 O.2   146  PRO146     -0.2865
     92  CB        18.4770  -47.0100   19.8640 C.3   146  PRO146      0.0296
     93  CG        19.1080  -47.4270   18.5870 C.3   146  PRO146      0.0237
     94  CD        18.8790  -46.2160   17.6950 C.3   146  PRO146      0.0939
     95  N          9.1040  -53.6500   14.9430 N.3   208  SER208     -0.1202
     96  CA        10.2670  -52.9180   15.4590 C.3   208  SER208      0.2020
     97  C         10.1590  -51.4370   15.1530 C.2   208  SER208      0.2619
     98  O         10.9550  -50.6430   15.6450 O.2   208  SER208     -0.2717
     99  CB        11.5510  -53.4540   14.8310 C.3   208  SER208      0.2103
    100  OG        11.4730  -53.4070   13.4110 O.3   208  SER208     -0.2182
    101  N          9.1890  -51.0770   14.3180 N.am  209  THR209     -0.1952
    102  CA         8.9670  -49.6820   13.9550 C.3   209  THR209      0.1897
    103  C          7.5180  -49.2930   14.2440 C.2   209  THR209      0.2313
    104  O          6.5920  -50.0630   13.9650 O.2   209  THR209     -0.2863
    105  CB         9.2880  -49.4190   12.4570 C.3   209  THR209      0.1794
    106  OG1        8.8310  -48.1120   12.0870 O.3   209  THR209     -0.2208
    107  CG2        8.6320  -50.4590   11.5650 C.3   209  THR209      0.0378
@<TRIPOS>BOND
     1    74    75    1
     2    74    73    1
     3   107   105    1
     4    76    77    1
     5   106   105    1
     6    73    72    1
     7    81    80    1
     8   105   102    1
     9    77    80    1
    10    77    78    1
    11    70    69    2
    12    72    71    1
    13   100    99    1
    14    65    64    2
    15    79    78    2
    16    69    68    1
    17    78    82   am
    18   102   103    1
    19   102   101    1
    20   104   103    2
    21    71    68    1
    22   101    97   am
    23    64    66   am
    24    64    63    1
    25    61    60    2
    26    68    67    1
    27    99    96    1
    28    95    96    1
    29    82    83    1
    30    97    96    1
    31    97    98    2
    32    63    62    1
    33    62    59    1
    34    60    59    1
    35    59    58    1
    36    56    57   ar
    37    56    54   ar
    38    83    86    1
    39    83    84    1
    40    57    55   ar
    41    86    87    1
    42    54    52   ar
    43    58    49   am
    44    50    49    2
    45    84    85    2
    46    84    88   am
    47    55    53   ar
    48    94    88    1
    49    94    93    1
    50    49    48    1
    51    52    53   ar
    52    52    51    1
    53    88    89    1
    54     9     8    1
    55    41    40    2
    56    93    92    1
    57    17    15    1
    58    51    48    1
    59    48    47    1
    60    89    92    1
    61    89    90    1
    62    16    15    1
    63    40    39    1
    64     8     7    1
    65    15    14    1
    66    42    39    1
    67    42    43    1
    68    39    38    1
    69     7     6    1
    70    90    91    2
    71    43    44    1
    72    37    36    2
    73    14    11    1
    74    24    23    2
    75    38    36   am
    76     6     5    1
    77    33    31    1
    78    36    35    1
    79     5     2    1
    80    11    12    1
    81    11    10    1
    82    44    45    1
    83    13    12    2
    84    23    25   am
    85    23    22    1
    86     2     1    1
    87     2     3    1
    88    12    18   am
    89    30    31    1
    90    30    27    1
    91    31    32    1
    92    46    45    1
    93    18    19    1
    94     4     3    2
    95    29    28    2
    96    19    22    1
    97    19    20    1
    98    35    34    1
    99    28    34   am
   100    28    27    1
   101    27    26    1
   102    21    20    2
