@<TRIPOS>MOLECULE
tmp/2p1dA00.pdb
 166 161 0 0 0
SMALL
GASTEIGER

@<TRIPOS>ATOM
      1  N         12.2530  -53.3910   -4.7600 N.3    50  SER50      -0.1217
      2  CA        12.2560  -53.5380   -3.3100 C.3    50  SER50       0.1889
      3  C         10.8900  -54.0170   -2.8430 C.2    50  SER50       0.2288
      4  O         10.0420  -54.3600   -3.6590 O.2    50  SER50      -0.2866
      5  CB        12.5620  -52.2010   -2.6420 C.3    50  SER50       0.2089
      6  OG        11.4440  -51.3340   -2.7230 O.3    50  SER50      -0.2183
      7  N          9.0100  -52.0510   -1.1500 N.3    52  GLY52      -0.1225
      8  CA         8.2430  -50.8270   -0.9820 C.3    52  GLY52       0.1811
      9  C          7.1130  -50.7590   -1.9870 C.2    52  GLY52       0.2280
     10  O          6.0900  -50.1100   -1.7450 O.2    52  GLY52      -0.2866
     11  N          8.5590  -38.4210   -5.9000 N.3    73  ASP73      -0.1239
     12  CA         8.8930  -39.4270   -4.9030 C.3    73  ASP73       0.1674
     13  C         10.1690  -39.0400   -4.1200 C.2    73  ASP73       0.2266
     14  O         11.2880  -39.2850   -4.5710 O.2    73  ASP73      -0.2867
     15  CB         9.0400  -40.7740   -5.6380 C.3    73  ASP73       0.1410
     16  CG         9.2530  -41.9440   -4.7030 C.2    73  ASP73       0.3668
     17  OD1        8.8980  -41.8440   -3.5100 O.co2  73  ASP73      -0.2456
     18  OD2        9.7720  -42.9770   -5.1730 O.co2  73  ASP73      -0.2456
     19  N         12.9840  -39.4660   -1.7070 N.3    75  GLY75      -0.1210
     20  CA        13.7000  -40.5540   -1.0570 C.3    75  GLY75       0.1956
     21  C         13.2640  -41.8500   -1.7200 C.2    75  GLY75       0.2612
     22  O         12.9570  -42.8410   -1.0470 O.2    75  GLY75      -0.2717
     23  N         13.2440  -41.8270   -3.0530 N.am   76  CYS76      -0.1956
     24  CA        12.8220  -42.9590   -3.8650 C.3    76  CYS76       0.1843
     25  C         13.5910  -44.2570   -3.6470 C.2    76  CYS76       0.2626
     26  O         13.1200  -45.3240   -4.0320 O.2    76  CYS76      -0.2714
     27  CB        12.8760  -42.5840   -5.3480 C.3    76  CYS76       0.0997
     28  SG        14.5360  -42.3170   -5.9960 S.3    76  CYS76      -0.0797
     29  N         14.7640  -44.1640   -3.0350 N.am   77  GLY77      -0.1940
     30  CA        15.5700  -45.3400   -2.7780 C.3    77  GLY77       0.2014
     31  C         15.9220  -45.9860   -4.0890 C.2    77  GLY77       0.2639
     32  O         16.3750  -45.3100   -5.0040 O.2    77  GLY77      -0.2714
     33  N         15.7040  -47.2920   -4.1850 N.am   78  ARG78      -0.1963
     34  CA        15.9950  -48.0240   -5.4080 C.3    78  ARG78       0.1729
     35  C         14.9640  -47.7830   -6.5120 C.2    78  ARG78       0.2617
     36  O         15.2520  -48.0280   -7.6850 O.2    78  ARG78      -0.2715
     37  CB        16.0860  -49.5180   -5.1080 C.3    78  ARG78       0.0348
     38  CG        17.4100  -49.9490   -4.5180 C.3    78  ARG78       0.0492
     39  CD        17.3350  -51.3610   -3.9710 C.3    78  ARG78       0.2205
     40  NE        16.4880  -51.4160   -2.7840 N.pl3  78  ARG78      -0.0865
     41  CZ        16.5240  -52.3950   -1.8860 C.cat  78  ARG78       0.5346
     42  NH1       17.3690  -53.4040   -2.0460 N.pl3  78  ARG78       0.1354
     43  NH2       15.7260  -52.3560   -0.8220 N.pl3  78  ARG78       0.1354
     44  N         13.7680  -47.3210   -6.1360 N.am   79  GLY79      -0.1940
     45  CA        12.7220  -47.0520   -7.1160 C.3    79  GLY79       0.2014
     46  C         11.3690  -47.6890   -6.8370 C.2    79  GLY79       0.2639
     47  O         10.4200  -47.5010   -7.5970 O.2    79  GLY79      -0.2714
     48  N         11.2820  -48.4370   -5.7430 N.am   80  GLY80      -0.1939
     49  CA        10.0520  -49.1200   -5.3740 C.3    80  GLY80       0.2014
     50  C          8.7190  -48.3950   -5.5150 C.2    80  GLY80       0.2638
     51  O          7.7880  -48.9310   -6.1290 O.2    80  GLY80      -0.2714
     52  N          8.5970  -47.2030   -4.9380 N.am   81  TRP81      -0.1973
     53  CA         7.3390  -46.4760   -5.0360 C.3    81  TRP81       0.1640
     54  C          7.1890  -45.8360   -6.3940 C.2    81  TRP81       0.2290
     55  O          6.0890  -45.7290   -6.9150 O.2    81  TRP81      -0.2864
     56  CB         7.2560  -45.3840   -3.9750 C.3    81  TRP81       0.0576
     57  CG         6.9770  -45.8840   -2.5980 C.ar   81  TRP81       0.0006
     58  CD1        7.0970  -47.1680   -2.1520 C.ar   81  TRP81       0.0946
     59  CD2        6.5840  -45.0970   -1.4640 C.ar   81  TRP81       0.0152
     60  NE1        6.8070  -47.2300   -0.8080 N.ar   81  TRP81      -0.2442
     61  CE2        6.4880  -45.9740   -0.3600 C.ar   81  TRP81       0.0810
     62  CE3        6.3040  -43.7350   -1.2740 C.ar   81  TRP81       0.0012
     63  CZ2        6.1210  -45.5340    0.9230 C.ar   81  TRP81       0.0191
     64  CZ3        5.9370  -43.2920    0.0030 C.ar   81  TRP81       0.0001
     65  CH2        5.8500  -44.1930    1.0840 C.ar   81  TRP81       0.0015
     66  N         16.7150  -39.2090   -4.5410 N.3    98  THR98      -0.1203
     67  CA        17.3780  -39.8060   -3.3680 C.3    98  THR98       0.1994
     68  C         18.8190  -39.3950   -3.2230 C.2    98  THR98       0.2618
     69  O         19.4370  -38.9250   -4.1750 O.2    98  THR98      -0.2717
     70  CB        17.3910  -41.3620   -3.3700 C.3    98  THR98       0.1784
     71  OG1       17.8780  -41.8550   -4.6250 O.3    98  THR98      -0.2211
     72  CG2       16.0310  -41.8900   -3.1100 C.3    98  THR98       0.0376
     73  N         19.3480  -39.6050   -2.0220 N.am   99  LYS99      -0.1965
     74  CA        20.7310  -39.2850   -1.7200 C.3    99  LYS99       0.1728
     75  C         21.5970  -40.2900   -2.4680 C.2    99  LYS99       0.2616
     76  O         22.4490  -39.9120   -3.2710 O.2    99  LYS99      -0.2715
     77  CB        20.9660  -39.4050   -0.2230 C.3    99  LYS99       0.0311
     78  CG        21.8900  -38.3610    0.3510 C.3    99  LYS99       0.0038
     79  CD        21.3800  -37.8890    1.7110 C.3    99  LYS99       0.0206
     80  CE        21.3730  -39.0220    2.7250 C.3    99  LYS99       0.1093
     81  NZ        22.7600  -39.5370    2.9710 N.3    99  LYS99      -0.1314
     82  N         21.3660  -41.5760   -2.2110 N.am  100  GLY100     -0.1955
     83  CA        22.1410  -42.6080   -2.8810 C.3   100  GLY100      0.1869
     84  C         23.6060  -42.5890   -2.4770 C.2   100  GLY100      0.2309
     85  O         23.9450  -42.2310   -1.3450 O.2   100  GLY100     -0.2863
     86  N         24.3340  -46.1430    0.7330 N.3   104  HIS104     -0.1226
     87  CA        22.9290  -45.7980    0.5710 C.3   104  HIS104      0.1752
     88  C         22.3280  -46.4700   -0.6600 C.2   104  HIS104      0.2595
     89  O         23.0210  -46.7030   -1.6490 O.2   104  HIS104     -0.2718
     90  CB        22.7710  -44.2780    0.4800 C.3   104  HIS104      0.0759
     91  CG        22.9620  -43.5730    1.7880 C.ar  104  HIS104      0.0818
     92  ND1       22.1370  -43.7820    2.8740 N.ar  104  HIS104     -0.2268
     93  CD2       23.8870  -42.6690    2.1890 C.ar  104  HIS104      0.1154
     94  CE1       22.5450  -43.0360    3.8860 C.ar  104  HIS104      0.1986
     95  NE2       23.6060  -42.3520    3.4970 N.ar  104  HIS104     -0.2212
     96  N         21.0420  -46.7950   -0.5900 N.am  105  GLU105     -0.1979
     97  CA        20.3650  -47.4290   -1.7110 C.3   105  GLU105      0.1602
     98  C         20.3700  -46.5290   -2.9410 C.2   105  GLU105      0.2287
     99  O         19.9920  -45.3540   -2.8780 O.2   105  GLU105     -0.2864
    100  CB        18.9240  -47.7990   -1.3330 C.3   105  GLU105      0.0415
    101  CG        18.8140  -49.0790   -0.5010 C.3   105  GLU105      0.1163
    102  CD        19.6420  -50.2300   -1.0870 C.2   105  GLU105      0.3649
    103  OE1       19.5880  -50.4490   -2.3210 O.co2 105  GLU105     -0.2457
    104  OE2       20.3480  -50.9190   -0.3150 O.co2 105  GLU105     -0.2457
    105  N         20.9900  -36.4430   -4.5700 N.3   124  VAL124     -0.1231
    106  CA        20.1200  -35.3160   -4.2480 C.3   124  VAL124      0.1692
    107  C         19.7050  -35.3500   -2.7860 C.2   124  VAL124      0.2592
    108  O         19.2850  -36.3900   -2.2910 O.2   124  VAL124     -0.2718
    109  CB        18.8240  -35.3590   -5.0830 C.3   124  VAL124      0.0266
    110  CG1       17.8960  -34.2350   -4.6570 C.3   124  VAL124      0.0020
    111  CG2       19.1490  -35.2820   -6.5660 C.3   124  VAL124      0.0020
    112  N         19.8390  -34.2250   -2.0890 N.am  125  ASP125     -0.1960
    113  CA        19.4090  -34.1520   -0.6920 C.3   125  ASP125      0.1840
    114  C         18.1410  -33.3200   -0.7480 C.2   125  ASP125      0.2622
    115  O         18.2060  -32.0990   -0.8670 O.2   125  ASP125     -0.2715
    116  CB        20.4300  -33.4380    0.1950 C.3   125  ASP125      0.1450
    117  CG        19.9230  -33.2430    1.6260 C.2   125  ASP125      0.3671
    118  OD1       18.7460  -32.8490    1.8080 O.co2 125  ASP125     -0.2456
    119  OD2       20.6990  -33.4710    2.5800 O.co2 125  ASP125     -0.2456
    120  N         16.9930  -33.9810   -0.6550 N.am  126  VAL126     -0.1963
    121  CA        15.7120  -33.2940   -0.7370 C.3   126  VAL126      0.1727
    122  C         15.4750  -32.1870    0.3010 C.2   126  VAL126      0.2616
    123  O         14.7550  -31.2230    0.0340 O.2   126  VAL126     -0.2715
    124  CB        14.5530  -34.3150   -0.6690 C.3   126  VAL126      0.0290
    125  CG1       14.7490  -35.3910   -1.7380 C.3   126  VAL126      0.0023
    126  CG2       14.4860  -34.9270    0.7150 C.3   126  VAL126      0.0023
    127  N         16.0830  -32.3070    1.4730 N.am  127  PHE127     -0.1974
    128  CA        15.8800  -31.3030    2.5060 C.3   127  PHE127      0.1639
    129  C         16.3340  -29.9060    2.1230 C.2   127  PHE127      0.2290
    130  O         16.0340  -28.9460    2.8400 O.2   127  PHE127     -0.2864
    131  CB        16.6040  -31.6910    3.7920 C.3   127  PHE127      0.0560
    132  CG        15.9400  -32.7880    4.5570 C.ar  127  PHE127     -0.0200
    133  CD1       16.4530  -34.0800    4.5270 C.ar  127  PHE127     -0.0042
    134  CD2       14.8290  -32.5240    5.3490 C.ar  127  PHE127     -0.0042
    135  CE1       15.8750  -35.0950    5.2770 C.ar  127  PHE127     -0.0003
    136  CE2       14.2430  -33.5310    6.1040 C.ar  127  PHE127     -0.0003
    137  CZ        14.7730  -34.8200    6.0680 C.ar  127  PHE127     -0.0000
    138  N          9.0790  -41.3620    1.7210 N.3   140  ASP140     -0.1225
    139  CA         9.3280  -42.5050    2.5900 C.3   140  ASP140      0.1805
    140  C         10.6800  -42.3600    3.2880 C.2   140  ASP140      0.2598
    141  O         11.4360  -43.3240    3.4240 O.2   140  ASP140     -0.2718
    142  CB         9.2960  -43.7820    1.7440 C.3   140  ASP140      0.1424
    143  CG         9.0610  -45.0310    2.5730 C.2   140  ASP140      0.3668
    144  OD1        8.4840  -44.9450    3.6800 O.co2 140  ASP140     -0.2456
    145  OD2        9.4420  -46.1170    2.1040 O.co2 140  ASP140     -0.2456
    146  N         10.9670  -41.1380    3.7320 N.am  141  ILE141     -0.1965
    147  CA        12.2300  -40.7910    4.4020 C.3   141  ILE141      0.1730
    148  C         12.1310  -40.8070    5.9240 C.2   141  ILE141      0.2655
    149  O         11.2130  -40.2220    6.4920 O.2   141  ILE141     -0.2711
    150  CB        12.7040  -39.3740    3.9700 C.3   141  ILE141      0.0290
    151  CG1       13.0700  -39.3850    2.4880 C.3   141  ILE141      0.0022
    152  CG2       13.8800  -38.9180    4.8280 C.3   141  ILE141      0.0023
    153  CD1       13.4740  -38.0470    1.9620 C.3   141  ILE141      0.0001
    154  N         13.0900  -41.4600    6.5780 N.am  142  GLY142     -0.1730
    155  CA        13.0740  -41.5160    8.0350 C.2   142  GLY142      0.1340
    156  C         13.8980  -42.6380    8.6460 C.2   142  GLY142      0.2521
    157  O         13.4700  -43.7900    8.6640 O.2   142  GLY142     -0.2816
    158  N          5.6160  -41.0530    5.0370 N.3   175  LYS175     -0.1245
    159  CA         6.0380  -41.8470    6.1720 C.3   175  LYS175      0.1561
    160  C          6.2700  -40.9550    7.3780 C.2   175  LYS175      0.2260
    161  O          7.0040  -39.9650    7.2940 O.2   175  LYS175     -0.2867
    162  CB         7.3360  -42.5750    5.8480 C.3   175  LYS175      0.0271
    163  CG         7.9540  -43.2820    7.0330 C.3   175  LYS175      0.0035
    164  CD         9.2690  -43.9120    6.6170 C.3   175  LYS175      0.0206
    165  CE         9.8380  -44.8380    7.6750 C.3   175  LYS175      0.1093
    166  NZ        10.8870  -45.7050    7.0700 N.3   175  LYS175     -0.1314
@<TRIPOS>BOND
     1    36    35    2
     2    47    46    2
     3    45    46    1
     4    45    44    1
     5    55    54    2
     6    46    48   am
     7   111   109    1
     8    35    44   am
     9    35    34    1
    10    54    53    1
    11    51    50    2
    12    28    27    1
    13    11    12    1
    14    48    49    1
    15    15    12    1
    16    15    16    1
    17    50    49    1
    18    50    52   am
    19    34    37    1
    20    34    33    1
    21    27    24    1
    22    18    16   ar
    23    37    38    1
    24   109   110    1
    25   109   106    1
    26    53    52    1
    27    53    56    1
    28    32    31    2
    29    12    13    1
    30     1     2    1
    31    16    17   ar
    32    71    70    1
    33    14    13    2
    34   105   106    1
    35    66    67    1
    36    38    39    1
    37   106   107    1
    38    33    31   am
    39    69    68    2
    40    31    30    1
    41    26    25    2
    42    56    57    1
    43    39    40    1
    44    24    25    1
    45    24    23    1
    46     4     3    2
    47    25    29   am
    48    70    67    1
    49    70    72    1
    50    67    68    1
    51     2     3    1
    52     2     5    1
    53    76    75    2
    54    68    73   am
    55    23    21   am
    56    29    30    1
    57    98    99    2
    58    98    97    1
    59    83    84    1
    60    83    82    1
    61   107   108    2
    62   107   112   am
    63    40    41    2
    64     6     5    1
    65    57    58   ar
    66    57    59   ar
    67    84    85    2
    68    75    82   am
    69    75    74    1
    70   103   102   ar
    71    58    60   ar
    72   112   113    1
    73    42    41    1
    74    73    74    1
    75     9    10    2
    76     9     8    1
    77    41    43    1
    78   125   124    1
    79    74    77    1
    80    21    20    1
    81    21    22    2
    82    97   100    1
    83    97    96    1
    84    19    20    1
    85    89    88    2
    86    59    62   ar
    87    59    61   ar
    88   100   101    1
    89    62    64   ar
    90     7     8    1
    91   102   101    1
    92   102   104   ar
    93   115   114    2
    94    60    61   ar
    95   114   113    1
    96   114   120   am
    97   121   124    1
    98   121   120    1
    99   121   122    1
   100   113   116    1
   101   124   126    1
   102    88    96   am
   103    88    87    1
   104    61    63   ar
   105    77    78    1
   106    64    65   ar
   107   123   122    2
   108   116   117    1
   109   122   127   am
   110    78    79    1
   111    90    87    1
   112    90    91    1
   113    87    86    1
   114    63    65   ar
   115   127   128    1
   116   117   118   ar
   117   117   119   ar
   118    79    80    1
   119   138   139    1
   120   142   143    1
   121   142   139    1
   122    91    93   ar
   123    91    92   ar
   124   153   151    1
   125   145   143   ar
   126   129   128    1
   127   129   130    2
   128    93    95   ar
   129   151   150    1
   130   128   131    1
   131   143   144   ar
   132   139   140    1
   133    80    81    1
   134    92    94   ar
   135   140   141    2
   136   140   146   am
   137    95    94   ar
   138   146   147    1
   139   131   132    1
   140   150   147    1
   141   150   152    1
   142   147   148    1
   143   133   132   ar
   144   133   135   ar
   145   132   134   ar
   146   158   159    1
   147   135   137   ar
   148   134   136   ar
   149   162   159    1
   150   162   163    1
   151   148   149    2
   152   148   154    1
   153   137   136   ar
   154   159   160    1
   155   154   155    2
   156   164   163    1
   157   164   165    1
   158   166   165    1
   159   161   160    2
   160   155   156    1
   161   156   157    2
