@<TRIPOS>MOLECULE
tmp/2p1nE01.pdb
 145 139 0 0 0
SMALL
GASTEIGER

@<TRIPOS>ATOM
      1  N         -0.0860    8.1720  -84.3030 N.3    71  HIS71      -0.1226
      2  CA        -0.4450    8.4050  -85.7300 C.3    71  HIS71       0.1752
      3  C         -0.5140    9.9210  -85.9760 C.2    71  HIS71       0.2596
      4  O          0.0120   10.3930  -86.9640 O.2    71  HIS71      -0.2718
      5  CB        -1.8480    7.7540  -85.9650 C.3    71  HIS71       0.0759
      6  CG        -2.4930    8.1580  -87.2440 C.ar   71  HIS71       0.0818
      7  ND1       -3.8610    8.3270  -87.3720 N.ar   71  HIS71      -0.2268
      8  CD2       -1.9490    8.4720  -88.4360 C.ar   71  HIS71       0.1154
      9  CE1       -4.1120    8.7260  -88.6080 C.ar   71  HIS71       0.1986
     10  NE2       -2.9680    8.8050  -89.2770 N.ar   71  HIS71      -0.2212
     11  N         -1.1240   10.6490  -85.0230 N.am   72  PHE72      -0.1976
     12  CA        -1.1800   12.1230  -84.9820 C.3    72  PHE72       0.1639
     13  C          0.1500   12.8310  -85.1640 C.2    72  PHE72       0.2290
     14  O          0.1780   14.0240  -85.5200 O.2    72  PHE72      -0.2864
     15  CB        -1.9380   12.6830  -83.7140 C.3    72  PHE72       0.0560
     16  CG        -3.4300   12.6400  -83.8390 C.ar   72  PHE72      -0.0200
     17  CD1       -4.0630   11.8930  -84.9320 C.ar   72  PHE72      -0.0042
     18  CD2       -4.2260   13.3350  -82.9920 C.ar   72  PHE72      -0.0042
     19  CE1       -5.4760   11.8510  -85.1170 C.ar   72  PHE72      -0.0003
     20  CE2       -5.6250   13.2570  -83.1910 C.ar   72  PHE72      -0.0003
     21  CZ        -6.2290   12.5190  -84.2780 C.ar   72  PHE72      -0.0000
     22  N          0.5340   14.8540  -87.9640 N.3    75  PHE75      -0.1241
     23  CA         0.0190   16.1700  -88.1460 C.3    75  PHE75       0.1605
     24  C          0.6730   17.2190  -87.2690 C.2    75  PHE75       0.2264
     25  O          0.0370   18.1530  -86.9290 O.2    75  PHE75      -0.2867
     26  CB        -1.4760   16.1320  -87.8990 C.3    75  PHE75       0.0534
     27  CG        -2.1130   14.9680  -88.5340 C.ar   75  PHE75      -0.0203
     28  CD1       -1.7760   14.6370  -89.8470 C.ar   75  PHE75      -0.0042
     29  CD2       -2.9870   14.1320  -87.8150 C.ar   75  PHE75      -0.0042
     30  CE1       -2.3230   13.5070  -90.4800 C.ar   75  PHE75      -0.0003
     31  CE2       -3.5750   13.0190  -88.4460 C.ar   75  PHE75      -0.0003
     32  CZ        -3.2350   12.7030  -89.7930 C.ar   75  PHE75      -0.0000
     33  N        -10.5050    6.3560  -98.5320 N.3   371  LEU371     -0.1245
     34  CA       -10.0370    7.5900  -97.9010 C.3   371  LEU371      0.1561
     35  C        -10.3930    8.7420  -98.8300 C.2   371  LEU371      0.2260
     36  O         -9.9370    8.7530  -99.9870 O.2   371  LEU371     -0.2867
     37  CB        -8.5080    7.5750  -97.5580 C.3   371  LEU371      0.0270
     38  CG        -7.8790    8.9150  -97.0250 C.3   371  LEU371      0.0019
     39  CD1       -8.3460    9.4900  -95.6770 C.3   371  LEU371      0.0001
     40  CD2       -6.4190    8.9210  -97.1940 C.3   371  LEU371      0.0001
     41  N        -11.0420   13.0580  -99.2910 N.3   373  PHE373     -0.1241
     42  CA       -11.0860   14.5090  -98.8160 C.3   373  PHE373      0.1605
     43  C        -12.0060   15.2780  -99.7440 C.2   373  PHE373      0.2264
     44  O        -11.6600   15.3630 -100.9250 O.2   373  PHE373     -0.2867
     45  CB        -9.6480   15.1510  -98.8910 C.3   373  PHE373      0.0534
     46  CG        -8.6790   14.6070  -97.7970 C.ar  373  PHE373     -0.0203
     47  CD1       -7.9900   13.3850  -97.9800 C.ar  373  PHE373     -0.0042
     48  CD2       -8.4890   15.2610  -96.5730 C.ar  373  PHE373     -0.0042
     49  CE1       -7.1280   12.8340  -96.9880 C.ar  373  PHE373     -0.0003
     50  CE2       -7.5800   14.7160  -95.5550 C.ar  373  PHE373     -0.0003
     51  CZ        -6.9200   13.4680  -95.8050 C.ar  373  PHE373     -0.0000
     52  N        -12.7230    6.3240  -94.3300 N.3   396  ARG396     -0.1231
     53  CA       -12.0920    7.5700  -93.8070 C.3   396  ARG396      0.1694
     54  C        -12.5860    8.8110  -94.5980 C.2   396  ARG396      0.2592
     55  O        -12.2750    8.9770  -95.8080 O.2   396  ARG396     -0.2718
     56  CB       -10.5250    7.4810  -93.7440 C.3   396  ARG396      0.0321
     57  CG       -10.0900    6.4150  -92.6730 C.3   396  ARG396      0.0489
     58  CD        -8.8010    5.7680  -93.0050 C.3   396  ARG396      0.2205
     59  NE        -7.7140    6.7430  -92.9830 N.pl3 396  ARG396     -0.0865
     60  CZ        -6.4380    6.4940  -93.2950 C.cat 396  ARG396      0.5346
     61  NH1       -6.0160    5.2560  -93.6220 N.pl3 396  ARG396      0.1354
     62  NH2       -5.5540    7.4790  -93.3270 N.pl3 396  ARG396      0.1354
     63  N        -13.3330    9.6840  -93.9410 N.am  397  LEU397     -0.1966
     64  CA       -13.9180   10.7620  -94.7230 C.3   397  LEU397      0.1728
     65  C        -13.6740   12.1560  -94.1410 C.2   397  LEU397      0.2616
     66  O        -14.1110   12.4950  -93.0160 O.2   397  LEU397     -0.2715
     67  CB       -15.3870   10.5520  -94.8620 C.3   397  LEU397      0.0311
     68  CG       -16.0110   11.6370  -95.7160 C.3   397  LEU397      0.0022
     69  CD1      -16.4430   11.0320  -96.9960 C.3   397  LEU397      0.0001
     70  CD2      -17.1600   12.0460  -94.9730 C.3   397  LEU397      0.0001
     71  N        -12.9010   12.9660  -94.8240 N.am  398  CYS398     -0.1968
     72  CA       -12.3950   14.1120  -94.0910 C.3   398  CYS398      0.1712
     73  C        -12.9210   15.4040  -94.8390 C.2   398  CYS398      0.2296
     74  O        -12.5330   15.6530  -95.9850 O.2   398  CYS398     -0.2864
     75  CB       -10.8850   14.0800  -94.0900 C.3   398  CYS398      0.0983
     76  SG       -10.3140   15.8180  -93.5540 S.3   398  CYS398     -0.0798
     77  N        -12.1760    0.3270  -89.2460 N.3   429  ARG429     -0.1245
     78  CA       -11.6220    1.6800  -89.2000 C.3   429  ARG429      0.1563
     79  C        -12.5240    2.7930  -89.6710 C.2   429  ARG429      0.2260
     80  O        -13.0600    2.7120  -90.7840 O.2   429  ARG429     -0.2867
     81  CB       -10.3650    1.8390  -90.0220 C.3   429  ARG429      0.0307
     82  CG        -9.6200    3.1310  -89.5530 C.3   429  ARG429      0.0489
     83  CD        -8.2860    3.2580  -90.1670 C.3   429  ARG429      0.2205
     84  NE        -7.6120    4.5200  -89.8870 N.pl3 429  ARG429     -0.0865
     85  CZ        -6.3450    4.7230  -90.2460 C.cat 429  ARG429      0.5346
     86  NH1       -5.6850    3.7620  -90.8870 N.pl3 429  ARG429      0.1354
     87  NH2       -5.7470    5.8960  -90.0110 N.pl3 429  ARG429      0.1354
     88  N        -12.6000    7.2130  -89.6520 N.3   431  SER431     -0.1202
     89  CA       -12.3090    8.6800  -89.3760 C.3   431  SER431      0.2020
     90  C        -13.5220    9.4270  -89.8800 C.2   431  SER431      0.2619
     91  O        -13.9370    9.1660  -91.0530 O.2   431  SER431     -0.2717
     92  CB       -11.0050    9.0860  -90.0170 C.3   431  SER431      0.2103
     93  OG       -11.0350    9.3230  -91.4200 O.3   431  SER431     -0.2182
     94  N        -14.2200   10.1690  -88.9890 N.am  432  LEU432     -0.1965
     95  CA       -15.2870   11.1300  -89.3890 C.3   432  LEU432      0.1728
     96  C        -15.0200   12.5850  -88.9900 C.2   432  LEU432      0.2616
     97  O        -13.9490   12.8900  -88.4040 O.2   432  LEU432     -0.2715
     98  CB       -16.6570   10.7260  -88.9230 C.3   432  LEU432      0.0311
     99  CG       -16.8680   10.1220  -87.5400 C.3   432  LEU432      0.0022
    100  CD1      -15.9690   10.6730  -86.5800 C.3   432  LEU432      0.0001
    101  CD2      -18.3150   10.2580  -87.0890 C.3   432  LEU432      0.0001
    102  N        -15.9820   13.4750  -89.3130 N.am  433  SER433     -0.1950
    103  CA       -15.7050   14.8160  -89.9110 C.3   433  SER433      0.1924
    104  C        -17.0650   15.5420  -90.0310 C.2   433  SER433      0.2314
    105  O        -18.0860   14.8700  -90.1340 O.2   433  SER433     -0.2863
    106  CB       -15.2950   14.5750  -91.3240 C.3   433  SER433      0.2116
    107  OG       -14.2850   15.4010  -91.4650 O.3   433  SER433     -0.2180
    108  N        -10.6580    7.7760  -85.3800 N.3   455  SER455     -0.1202
    109  CA       -10.1770    9.1720  -85.3780 C.3   455  SER455      0.2020
    110  C        -11.2440   10.1930  -85.4330 C.2   455  SER455      0.2619
    111  O        -12.1450   10.1530  -86.3390 O.2   455  SER455     -0.2717
    112  CB        -9.4480    9.4090  -86.6650 C.3   455  SER455      0.2103
    113  OG        -8.2180    8.7060  -86.6050 O.3   455  SER455     -0.2182
    114  N        -11.1260   11.1680  -84.5420 N.am  456  VAL456     -0.1965
    115  CA       -12.1180   12.1890  -84.5040 C.3   456  VAL456      0.1727
    116  C        -11.6450   13.6120  -84.0840 C.2   456  VAL456      0.2616
    117  O        -10.7050   13.6950  -83.2940 O.2   456  VAL456     -0.2715
    118  CB       -13.3620   11.7430  -83.7610 C.3   456  VAL456      0.0290
    119  CG1      -13.2650   12.1100  -82.3580 C.3   456  VAL456      0.0023
    120  CG2      -14.6090   12.5010  -84.4180 C.3   456  VAL456      0.0023
    121  N        -12.2930   14.7040  -84.6080 N.am  457  ALA457     -0.1977
    122  CA       -11.8560   16.1370  -84.4500 C.3   457  ALA457      0.1597
    123  C        -13.0850   17.0560  -84.3690 C.2   457  ALA457      0.2287
    124  O        -14.0190   16.7920  -84.9800 O.2   457  ALA457     -0.2864
    125  CB       -10.9370   16.5230  -85.5010 C.3   457  ALA457      0.0319
    126  N         -8.2270    8.1080  -81.0700 N.3   480  GLU480     -0.1245
    127  CA        -7.4450    9.3310  -81.2270 C.3   480  GLU480      0.1567
    128  C         -8.3370   10.5520  -81.5360 C.2   480  GLU480      0.2260
    129  O         -9.0730   10.5620  -82.5650 O.2   480  GLU480     -0.2867
    130  CB        -6.3340    9.2260  -82.3000 C.3   480  GLU480      0.0388
    131  CG        -6.8290    8.7700  -83.6310 C.3   480  GLU480      0.1160
    132  CD        -5.7130    8.5740  -84.5830 C.2   480  GLU480      0.3649
    133  OE1       -5.8170    8.7030  -85.8310 O.co2 480  GLU480     -0.2457
    134  OE2       -4.6240    8.2840  -84.1270 O.co2 480  GLU480     -0.2457
    135  N         -8.9790   14.7730  -81.1800 N.3   482  ARG482     -0.1245
    136  CA        -8.6540   16.1850  -81.0470 C.3   482  ARG482      0.1563
    137  C         -9.8360   17.1700  -80.9060 C.2   482  ARG482      0.2260
    138  O        -10.9210   16.9800  -81.5130 O.2   482  ARG482     -0.2867
    139  CB        -7.5740   16.6060  -82.0110 C.3   482  ARG482      0.0307
    140  CG        -7.9120   16.6840  -83.4380 C.3   482  ARG482      0.0489
    141  CD        -7.8120   18.1590  -83.7710 C.3   482  ARG482      0.2205
    142  NE        -6.7990   18.3490  -84.7650 N.pl3 482  ARG482     -0.0865
    143  CZ        -6.1550   19.4800  -85.0200 C.cat 482  ARG482      0.5346
    144  NH1       -6.3940   20.5810  -84.3680 N.pl3 482  ARG482      0.1354
    145  NH2       -5.2450   19.4560  -85.9660 N.pl3 482  ARG482      0.1354
@<TRIPOS>BOND
     1    44    43    2
     2    36    35    2
     3    43    42    1
     4    41    42    1
     5    45    42    1
     6    45    46    1
     7    35    34    1
     8    33    34    1
     9    47    46   ar
    10    47    49   ar
    11    34    37    1
    12    46    48   ar
    13    37    38    1
    14    40    38    1
    15    38    39    1
    16    69    68    1
    17    49    51   ar
    18    48    50   ar
    19    74    73    2
    20    55    54    2
    21    51    50   ar
    22    68    70    1
    23    68    67    1
    24    67    64    1
    25    73    72    1
    26    71    65   am
    27    71    72    1
    28    64    65    1
    29    64    63    1
    30    54    63   am
    31    54    53    1
    32    52    53    1
    33    65    66    2
    34    72    75    1
    35    75    76    1
    36    53    56    1
    37    56    57    1
    38    61    60    1
    39    62    60    1
    40    60    59    2
    41    58    59    1
    42    58    57    1
    43   107   106    1
    44    93    92    1
    45   106   103    1
    46    91    90    2
    47    86    85    1
    48    80    79    2
    49    30    28   ar
    50    30    32   ar
    51    85    87    1
    52    85    84    2
    53    83    84    1
    54    83    82    1
    55   105   104    2
    56   104   103    1
    57    81    82    1
    58    81    78    1
    59    92    89    1
    60   103   102    1
    61    90    89    1
    62    90    94   am
    63    28    27   ar
    64    32    31   ar
    65    79    78    1
    66    88    89    1
    67    95    96    1
    68    95    94    1
    69    95    98    1
    70   102    96   am
    71    10     9   ar
    72    10     8   ar
    73    77    78    1
    74    96    97    2
    75    98    99    1
    76     9     7   ar
    77    27    26    1
    78    27    29   ar
    79    31    29   ar
    80     8     6   ar
    81    23    22    1
    82    23    26    1
    83    23    24    1
    84    99   101    1
    85    99   100    1
    86     7     6   ar
    87    24    25    2
    88     6     5    1
    89     4     3    2
    90   112   113    1
    91   112   109    1
    92   111   110    2
    93     3     2    1
    94     3    11   am
    95   145   143    1
    96     5     2    1
    97   133   132   ar
    98     2     1    1
    99    14    13    2
   100   125   122    1
   101   110   109    1
   102   110   114   am
   103   108   109    1
   104    13    12    1
   105    19    17   ar
   106    19    21   ar
   107    11    12    1
   108   143   142    2
   109   143   144    1
   110    12    15    1
   111   124   123    2
   112    17    16   ar
   113   142   141    1
   114   121   122    1
   115   121   116   am
   116   132   134   ar
   117   132   131    1
   118   114   115    1
   119   115   116    1
   120   115   118    1
   121   122   123    1
   122   120   118    1
   123    21    20   ar
   124   116   117    2
   125    16    15    1
   126    16    18   ar
   127   141   140    1
   128   118   119    1
   129   131   130    1
   130   140   139    1
   131    20    18   ar
   132   129   128    2
   133   130   127    1
   134   139   136    1
   135   128   127    1
   136   138   137    2
   137   127   126    1
   138   135   136    1
   139   136   137    1
