@<TRIPOS>MOLECULE
tmp/2p1nE00.pdb
 167 155 0 0 0
SMALL
GASTEIGER

@<TRIPOS>ATOM
      1  N          6.2530   -8.7490  -83.4360 N.3    42  PHE42      -0.1241
      2  CA         5.5650   -7.5340  -84.0040 C.3    42  PHE42       0.1605
      3  C          5.3420   -6.6460  -82.7980 C.2    42  PHE42       0.2264
      4  O          4.6810   -7.0670  -81.8500 O.2    42  PHE42      -0.2867
      5  CB         4.1880   -7.8180  -84.6750 C.3    42  PHE42       0.0534
      6  CG         3.3020   -6.5380  -84.8830 C.ar   42  PHE42      -0.0203
      7  CD1        3.5340   -5.6640  -85.9150 C.ar   42  PHE42      -0.0042
      8  CD2        2.2550   -6.2210  -84.0280 C.ar   42  PHE42      -0.0042
      9  CE1        2.7400   -4.4920  -86.1040 C.ar   42  PHE42      -0.0003
     10  CE2        1.4490   -5.0360  -84.2150 C.ar   42  PHE42      -0.0003
     11  CZ         1.7150   -4.1690  -85.2500 C.ar   42  PHE42      -0.0000
     12  N          9.6340   -6.0980  -85.9500 N.3    65  GLU65      -0.1245
     13  CA         8.9140   -4.8930  -86.3350 C.3    65  GLU65       0.1567
     14  C          8.5330   -3.9350  -85.2180 C.2    65  GLU65       0.2260
     15  O          7.9960   -4.3590  -84.2020 O.2    65  GLU65      -0.2867
     16  CB         7.8180   -5.1000  -87.4080 C.3    65  GLU65       0.0388
     17  CG         6.7440   -3.9860  -87.4870 C.3    65  GLU65       0.1160
     18  CD         5.7640   -4.1620  -88.6860 C.2    65  GLU65       0.3649
     19  OE1        5.5960   -5.3120  -89.1590 O.co2  65  GLU65      -0.2457
     20  OE2        5.1750   -3.1520  -89.1810 O.co2  65  GLU65      -0.2457
     21  N          6.8720   -0.0330  -83.8780 N.3    67  LYS67      -0.1245
     22  CA         6.1280    1.2240  -84.0910 C.3    67  LYS67       0.1561
     23  C          6.3040    2.1570  -82.8950 C.2    67  LYS67       0.2260
     24  O          6.2700    1.7040  -81.7150 O.2    67  LYS67      -0.2867
     25  CB         4.6860    0.9120  -84.3810 C.3    67  LYS67       0.0271
     26  CG         4.5540    0.3670  -85.8750 C.3    67  LYS67       0.0035
     27  CD         3.0530   -0.0380  -86.1390 C.3    67  LYS67       0.0206
     28  CE         2.8320   -0.7070  -87.4640 C.3    67  LYS67       0.1093
     29  NZ         1.3550   -0.7090  -87.9040 N.3    67  LYS67      -0.1314
     30  N         -0.0860    8.1720  -84.3030 N.3    71  HIS71      -0.1241
     31  CA        -0.4450    8.4050  -85.7300 C.3    71  HIS71       0.1621
     32  C         -0.5140    9.9210  -85.9760 C.2    71  HIS71       0.2264
     33  O          0.0120   10.3930  -86.9640 O.2    71  HIS71      -0.2867
     34  CB        -1.8480    7.7540  -85.9650 C.3    71  HIS71       0.0745
     35  CG        -2.4930    8.1580  -87.2440 C.ar   71  HIS71       0.0817
     36  ND1       -3.8610    8.3270  -87.3720 N.ar   71  HIS71      -0.2268
     37  CD2       -1.9490    8.4720  -88.4360 C.ar   71  HIS71       0.1154
     38  CE1       -4.1120    8.7260  -88.6080 C.ar   71  HIS71       0.1986
     39  NE2       -2.9680    8.8050  -89.2770 N.ar   71  HIS71      -0.2212
     40  N          1.9020   12.4460  -87.3470 N.3    74  ASP74      -0.1239
     41  CA         1.8000   12.8800  -88.7470 C.3    74  ASP74       0.1674
     42  C          1.2070   14.2940  -88.9570 C.2    74  ASP74       0.2266
     43  O          1.3480   14.8580  -90.0240 O.2    74  ASP74      -0.2867
     44  CB         0.9740   11.9000  -89.5270 C.3    74  ASP74       0.1410
     45  CG         1.7210   10.5990  -89.8060 C.2    74  ASP74       0.3668
     46  OD1        2.8510   10.3180  -89.2850 O.co2  74  ASP74      -0.2456
     47  OD2        1.1190    9.8390  -90.5350 O.co2  74  ASP74      -0.2456
     48  N          8.4020    1.9290  -87.8980 N.3   106  LYS106     -0.1231
     49  CA         7.4760    2.9830  -88.2400 C.3   106  LYS106      0.1693
     50  C          7.4730    4.0550  -87.1600 C.2   106  LYS106      0.2591
     51  O          7.3150    3.7490  -85.9510 O.2   106  LYS106     -0.2718
     52  CB         6.0490    2.4660  -88.3080 C.3   106  LYS106      0.0285
     53  CG         5.2690    2.8830  -89.5100 C.3   106  LYS106      0.0035
     54  CD         3.7910    2.8170  -89.2740 C.3   106  LYS106      0.0206
     55  CE         3.1110    3.3650  -90.5150 C.3   106  LYS106      0.1093
     56  NZ         1.6220    3.3410  -90.2580 N.3   106  LYS106     -0.1314
     57  N          7.5830    5.3190  -87.6130 N.am  107  ARG107     -0.1980
     58  CA         7.6460    6.5110  -86.7040 C.3   107  ARG107      0.1597
     59  C          8.5840    6.3560  -85.5340 C.2   107  ARG107      0.2287
     60  O          8.1790    6.6170  -84.3640 O.2   107  ARG107     -0.2864
     61  CB         6.2860    6.7840  -86.1000 C.3   107  ARG107      0.0334
     62  CG         5.3340    7.2140  -87.2010 C.3   107  ARG107      0.0492
     63  CD         3.8630    7.5350  -86.6640 C.3   107  ARG107      0.2205
     64  NE         2.9770    7.6610  -87.7910 N.pl3 107  ARG107     -0.0865
     65  CZ         1.9780    6.8100  -88.0200 C.cat 107  ARG107      0.5346
     66  NH1        1.7270    5.7970  -87.1730 N.pl3 107  ARG107      0.1354
     67  NH2        1.2140    6.9920  -89.0850 N.pl3 107  ARG107      0.1354
     68  N         -8.3710    6.0290 -102.7870 N.3   337  ARG337     -0.1301
     69  CA        -7.9460    7.2710 -102.0290 C.3   337  ARG337      0.1248
     70  C         -7.9640    8.5370 -102.8960 C.3   337  ARG337      0.2009
     71  O         -7.2320    8.6470 -103.9570 O.3   337  ARG337     -0.2188
     72  CB        -6.5930    7.0830 -101.3290 C.3   337  ARG337      0.0254
     73  CG        -6.5590    5.8490 -100.3030 C.3   337  ARG337      0.0485
     74  CD        -5.2390    5.6650  -99.4780 C.3   337  ARG337      0.2205
     75  NE        -5.3280    4.4510  -98.6760 N.pl3 337  ARG337     -0.0865
     76  CZ        -4.6200    4.2080  -97.5810 C.cat 337  ARG337      0.5346
     77  NH1       -3.7550    5.0860  -97.0790 N.pl3 337  ARG337      0.1354
     78  NH2       -4.7680    3.0710  -96.9430 N.pl3 337  ARG337      0.1354
     79  N        -12.4220   -0.2060  -98.9480 N.3   369  SER369     -0.1217
     80  CA       -11.4740    0.7700  -98.3510 C.3   369  SER369      0.1889
     81  C        -11.5260    2.1920  -98.9560 C.2   369  SER369      0.2288
     82  O        -11.1990    2.3920 -100.1560 O.2   369  SER369     -0.2866
     83  CB       -10.0290    0.2290  -98.4660 C.3   369  SER369      0.2089
     84  OG        -9.0920    1.0480  -97.7940 O.3   369  SER369     -0.2183
     85  N        -12.7540   -0.2180  -93.9560 N.3   394  ARG394     -0.1245
     86  CA       -12.0030    0.9880  -93.5820 C.3   394  ARG394      0.1563
     87  C        -12.6930    2.2160  -94.2890 C.2   394  ARG394      0.2260
     88  O        -12.7250    2.3540  -95.5340 O.2   394  ARG394     -0.2867
     89  CB       -10.5490    0.8220  -94.0370 C.3   394  ARG394      0.0307
     90  CG        -9.8680   -0.2560  -93.1520 C.3   394  ARG394      0.0489
     91  CD        -8.7120   -0.9740  -93.8670 C.3   394  ARG394      0.2205
     92  NE        -9.2130   -1.8230  -94.9230 N.pl3 394  ARG394     -0.0865
     93  CZ        -8.4880   -2.5370  -95.7640 C.cat 394  ARG394      0.5346
     94  NH1       -7.1660   -2.5670  -95.6700 N.pl3 394  ARG394      0.1354
     95  NH2       -9.1040   -3.2280  -96.7300 N.pl3 394  ARG394      0.1354
     96  N        -12.7230    6.3240  -94.3300 N.3   396  ARG396     -0.1245
     97  CA       -12.0920    7.5700  -93.8070 C.3   396  ARG396      0.1563
     98  C        -12.5860    8.8110  -94.5980 C.2   396  ARG396      0.2260
     99  O        -12.2750    8.9770  -95.8080 O.2   396  ARG396     -0.2867
    100  CB       -10.5250    7.4810  -93.7440 C.3   396  ARG396      0.0307
    101  CG       -10.0900    6.4150  -92.6730 C.3   396  ARG396      0.0489
    102  CD        -8.8010    5.7680  -93.0050 C.3   396  ARG396      0.2205
    103  NE        -7.7140    6.7430  -92.9830 N.pl3 396  ARG396     -0.0865
    104  CZ        -6.4380    6.4940  -93.2950 C.cat 396  ARG396      0.5346
    105  NH1       -6.0160    5.2560  -93.6220 N.pl3 396  ARG396      0.1354
    106  NH2       -5.5540    7.4790  -93.3270 N.pl3 396  ARG396      0.1354
    107  N        -13.7750   -1.9090  -89.6210 N.3   428  ARG428     -0.1231
    108  CA       -12.7760   -1.9730  -88.5390 C.3   428  ARG428      0.1694
    109  C        -12.0400   -0.5930  -88.2830 C.2   428  ARG428      0.2591
    110  O        -11.3820   -0.3700  -87.2680 O.2   428  ARG428     -0.2718
    111  CB       -11.8860   -3.2160  -88.8240 C.3   428  ARG428      0.0321
    112  CG       -10.9870   -2.9660  -89.8790 C.3   428  ARG428      0.0489
    113  CD        -9.8810   -4.0860  -89.9040 C.3   428  ARG428      0.2205
    114  NE       -10.2740   -4.9790  -90.9750 N.pl3 428  ARG428     -0.0865
    115  CZ        -9.7220   -5.0140  -92.1650 C.cat 428  ARG428      0.5346
    116  NH1       -8.5900   -4.3100  -92.4910 N.pl3 428  ARG428      0.1354
    117  NH2      -10.3520   -5.7820  -93.0200 N.pl3 428  ARG428      0.1354
    118  N        -12.1760    0.3270  -89.2460 N.am  429  ARG429     -0.1980
    119  CA       -11.6220    1.6800  -89.2000 C.3   429  ARG429      0.1597
    120  C        -12.5240    2.7930  -89.6710 C.2   429  ARG429      0.2287
    121  O        -13.0600    2.7120  -90.7840 O.2   429  ARG429     -0.2864
    122  CB       -10.3650    1.8390  -90.0220 C.3   429  ARG429      0.0334
    123  CG        -9.6200    3.1310  -89.5530 C.3   429  ARG429      0.0492
    124  CD        -8.2860    3.2580  -90.1670 C.3   429  ARG429      0.2205
    125  NE        -7.6120    4.5200  -89.8870 N.pl3 429  ARG429     -0.0865
    126  CZ        -6.3450    4.7230  -90.2460 C.cat 429  ARG429      0.5346
    127  NH1       -5.6850    3.7620  -90.8870 N.pl3 429  ARG429      0.1354
    128  NH2       -5.7470    5.8960  -90.0110 N.pl3 429  ARG429      0.1354
    129  N         -9.9330    1.2050  -84.9510 N.3   453  MET453     -0.1245
    130  CA        -9.2610    2.4830  -84.8880 C.3   453  MET453      0.1570
    131  C        -10.3400    3.5260  -85.2570 C.2   453  MET453      0.2261
    132  O        -10.9330    3.4280  -86.3140 O.2   453  MET453     -0.2867
    133  CB        -8.1210    2.5020  -85.9150 C.3   453  MET453      0.0387
    134  CG        -7.3650    3.7440  -85.8960 C.3   453  MET453      0.0595
    135  SD        -5.7750    3.7570  -86.8440 S.3   453  MET453     -0.1393
    136  CE        -6.1810    2.7630  -88.2370 C.3   453  MET453      0.0692
    137  N         -9.1030   -0.6250  -80.5050 N.3   477  ARG477     -0.1231
    138  CA        -7.6780   -0.8420  -80.1580 C.3   477  ARG477      0.1694
    139  C         -6.9700    0.5430  -80.0360 C.2   477  ARG477      0.2591
    140  O         -6.0830    0.7280  -79.2100 O.2   477  ARG477     -0.2718
    141  CB        -6.9890   -1.7250  -81.2310 C.3   477  ARG477      0.0321
    142  CG        -7.4660   -3.2360  -81.1800 C.3   477  ARG477      0.0489
    143  CD        -6.9100   -4.0210  -82.4420 C.3   477  ARG477      0.2205
    144  NE        -5.5970   -3.5050  -82.6750 N.pl3 477  ARG477     -0.0865
    145  CZ        -5.1650   -3.0280  -83.8380 C.cat 477  ARG477      0.5346
    146  NH1       -5.9980   -3.0210  -84.8840 N.pl3 477  ARG477      0.1354
    147  NH2       -3.8870   -2.5560  -83.9460 N.pl3 477  ARG477      0.1354
    148  N         -7.3420    1.4880  -80.8910 N.am  478  LYS478     -0.1980
    149  CA        -6.7020    2.8210  -80.9090 C.3   478  LYS478      0.1596
    150  C         -7.7900    3.9230  -81.0210 C.2   478  LYS478      0.2287
    151  O         -8.6580    3.8950  -81.9480 O.2   478  LYS478     -0.2864
    152  CB        -5.7920    2.8670  -82.0710 C.3   478  LYS478      0.0298
    153  CG        -4.5810    2.2170  -81.8000 C.3   478  LYS478      0.0038
    154  CD        -3.6650    2.1850  -83.0910 C.3   478  LYS478      0.0206
    155  CE        -4.2940    1.4110  -84.3530 C.3   478  LYS478      0.1093
    156  NZ        -3.2900    1.4100  -85.5550 N.3   478  LYS478     -0.1314
    157  N         -4.5270   -0.5670  -77.4410 N.3   502  ARG502     -0.1245
    158  CA        -3.1540   -0.0630  -77.6340 C.3   502  ARG502      0.1563
    159  C         -2.9620    1.2930  -76.9650 C.2   502  ARG502      0.2260
    160  O         -2.1620    1.4030  -76.0860 O.2   502  ARG502     -0.2867
    161  CB        -2.6640   -0.0330  -79.0590 C.3   502  ARG502      0.0307
    162  CG        -1.2270    0.6370  -79.0950 C.3   502  ARG502      0.0489
    163  CD        -0.6380    0.8830  -80.5500 C.3   502  ARG502      0.2205
    164  NE        -0.7330   -0.4170  -81.2560 N.pl3 502  ARG502     -0.0865
    165  CZ        -0.5500   -0.5890  -82.5650 C.cat 502  ARG502      0.5346
    166  NH1       -0.3450    0.4570  -83.3590 N.pl3 502  ARG502      0.1354
    167  NH2       -0.5990   -1.8060  -83.1120 N.pl3 502  ARG502      0.1354
@<TRIPOS>BOND
     1    71    70    1
     2    70    69    1
     3    68    69    1
     4    69    72    1
     5    72    73    1
     6    73    74    1
     7    82    81    2
     8    74    75    1
     9    81    80    1
    10    79    80    1
    11    75    76    2
    12    83    80    1
    13    83    84    1
    14    76    77    1
    15    76    78    1
    16    95    93    1
    17    99    98    2
    18    93    94    1
    19    93    92    2
    20    88    87    2
    21    92    91    1
    22    98    97    1
    23    96    97    1
    24    87    86    1
    25    89    86    1
    26    89    90    1
    27    85    86    1
    28    91    90    1
    29    97   100    1
    30   100   101    1
    31   105   104    1
    32   106   104    1
    33   104   103    2
    34   117   115    1
    35   102   103    1
    36   102   101    1
    37   116   115    1
    38   115   114    2
    39   114   113    1
    40   127   126    1
    41   121   120    2
    42    47    45   ar
    43    55    56    1
    44    55    54    1
    45   126   128    1
    46   126   125    2
    47   124   125    1
    48   124   123    1
    49    43    42    2
    50   122   123    1
    51   122   119    1
    52   113   112    1
    53   112   111    1
    54    45    44    1
    55    45    46   ar
    56   120   119    1
    57   107   108    1
    58    44    41    1
    59    53    54    1
    60    53    52    1
    61    39    38   ar
    62    39    37   ar
    63   118   119    1
    64   118   109   am
    65    20    18   ar
    66    19    18   ar
    67    67    65    1
    68    42    41    1
    69   111   108    1
    70    41    40    1
    71    18    17    1
    72    38    36   ar
    73   108   109    1
    74    37    35   ar
    75    52    49    1
    76   109   110    2
    77    49    48    1
    78    49    50    1
    79   136   135    1
    80    65    64    2
    81    65    66    1
    82    29    28    1
    83    64    63    1
    84    57    50   am
    85    57    58    1
    86    17    16    1
    87    28    27    1
    88    16    13    1
    89    36    35   ar
    90    35    34    1
    91    62    63    1
    92    62    61    1
    93    50    51    2
    94    33    32    2
    95   135   134    1
    96    58    61    1
    97    58    59    1
    98    13    12    1
    99    13    14    1
   100   132   131    2
   101    27    26    1
   102     9     7   ar
   103     9    11   ar
   104    32    31    1
   105    34    31    1
   106   133   134    1
   107   133   130    1
   108     7     6   ar
   109    26    25    1
   110    31    30    1
   111   156   155    1
   112    59    60    2
   113   131   130    1
   114    11    10   ar
   115    14    15    2
   116   129   130    1
   117   146   145    1
   118     6     5    1
   119     6     8   ar
   120     5     2    1
   121    25    22    1
   122   155   154    1
   123    10     8   ar
   124    22    21    1
   125    22    23    1
   126     2     1    1
   127     2     3    1
   128   147   145    1
   129   145   144    2
   130   166   165    1
   131   167   165    1
   132   154   153    1
   133    23    24    2
   134     3     4    2
   135   144   143    1
   136   165   164    2
   137   143   142    1
   138   152   153    1
   139   152   149    1
   140   151   150    2
   141   164   163    1
   142   141   142    1
   143   141   138    1
   144   150   149    1
   145   149   148    1
   146   148   139   am
   147   163   162    1
   148   137   138    1
   149   138   139    1
   150   139   140    2
   151   162   161    1
   152   161   158    1
   153   158   157    1
   154   158   159    1
   155   159   160    2
