@<TRIPOS>MOLECULE
tmp/2p1oB01.pdb
 145 139 0 0 0
SMALL
GASTEIGER

@<TRIPOS>ATOM
      1  N         15.5060 -115.9250  -20.1830 N.3    71  HIS71      -0.1226
      2  CA        15.1730 -115.4190  -21.5220 C.3    71  HIS71       0.1752
      3  C         15.0750 -113.8900  -21.6330 C.2    71  HIS71       0.2596
      4  O         15.4950 -113.3200  -22.6580 O.2    71  HIS71      -0.2718
      5  CB        13.8550 -116.0620  -21.9540 C.3    71  HIS71       0.0759
      6  CG        13.2960 -115.5510  -23.2430 C.ar   71  HIS71       0.0818
      7  ND1       11.9500 -115.3840  -23.4250 N.ar   71  HIS71      -0.2268
      8  CD2       13.8780 -115.1950  -24.4140 C.ar   71  HIS71       0.1154
      9  CE1       11.7150 -114.9720  -24.6560 C.ar   71  HIS71       0.1986
     10  NE2       12.8710 -114.8560  -25.2810 N.ar   71  HIS71      -0.2212
     11  N         14.5350 -113.2220  -20.6070 N.am   72  PHE72      -0.1976
     12  CA        14.3740 -111.7540  -20.6750 C.3    72  PHE72       0.1639
     13  C         15.7090 -111.0040  -20.7040 C.2    72  PHE72       0.2290
     14  O         15.7640 -109.7850  -20.9930 O.2    72  PHE72      -0.2864
     15  CB        13.4820 -111.2500  -19.5150 C.3    72  PHE72       0.0560
     16  CG        11.9940 -111.3140  -19.7960 C.ar   72  PHE72      -0.0200
     17  CD1       11.4770 -112.0390  -20.8540 C.ar   72  PHE72      -0.0042
     18  CD2       11.1050 -110.6350  -18.9810 C.ar   72  PHE72      -0.0042
     19  CE1       10.1110 -112.0740  -21.0950 C.ar   72  PHE72      -0.0003
     20  CE2        9.7570 -110.6720  -19.2150 C.ar   72  PHE72      -0.0003
     21  CZ         9.2490 -111.3900  -20.2700 C.ar   72  PHE72      -0.0000
     22  N         16.4460 -109.0760  -23.7710 N.3    75  PHE75      -0.1241
     23  CA        15.8280 -107.7560  -23.9790 C.3    75  PHE75       0.1605
     24  C         16.3560 -106.7150  -23.0000 C.2    75  PHE75       0.2264
     25  O         15.6810 -105.6980  -22.7320 O.2    75  PHE75      -0.2867
     26  CB        14.2960 -107.8690  -23.8820 C.3    75  PHE75       0.0534
     27  CG        13.7400 -109.0840  -24.5800 C.ar   75  PHE75      -0.0203
     28  CD1       14.0630 -109.3350  -25.9120 C.ar   75  PHE75      -0.0042
     29  CD2       12.9130 -109.9940  -23.8970 C.ar   75  PHE75      -0.0042
     30  CE1       13.5790 -110.4920  -26.5890 C.ar   75  PHE75      -0.0003
     31  CE2       12.4070 -111.1460  -24.5630 C.ar   75  PHE75      -0.0003
     32  CZ        12.7340 -111.3860  -25.9140 C.ar   75  PHE75      -0.0000
     33  N          5.9450 -117.1590  -34.7130 N.3   371  LEU371     -0.1245
     34  CA         6.3020 -115.9200  -34.0120 C.3   371  LEU371      0.1561
     35  C          5.9960 -114.8000  -34.9610 C.2   371  LEU371      0.2260
     36  O          6.5410 -114.7640  -36.0700 O.2   371  LEU371     -0.2867
     37  CB         7.8020 -115.9210  -33.6410 C.3   371  LEU371      0.0270
     38  CG         8.4230 -114.6290  -33.0610 C.3   371  LEU371      0.0019
     39  CD1        7.7080 -114.1760  -31.7510 C.3   371  LEU371      0.0001
     40  CD2        9.8970 -114.8190  -32.7680 C.3   371  LEU371      0.0001
     41  N          5.3060 -110.5540  -35.5510 N.3   373  PHE373     -0.1241
     42  CA         5.3580 -109.1780  -35.0510 C.3   373  PHE373      0.1605
     43  C          4.5150 -108.3570  -36.0190 C.2   373  PHE373      0.2264
     44  O          4.8000 -108.3190  -37.2200 O.2   373  PHE373     -0.2867
     45  CB         6.7790 -108.6090  -35.0530 C.3   373  PHE373      0.0534
     46  CG         7.6810 -109.1570  -33.9790 C.ar  373  PHE373     -0.0203
     47  CD1        8.2790 -110.4330  -34.1080 C.ar  373  PHE373     -0.0042
     48  CD2        8.0060 -108.3830  -32.8740 C.ar  373  PHE373     -0.0042
     49  CE1        9.1540 -110.9290  -33.0950 C.ar  373  PHE373     -0.0003
     50  CE2        8.8800 -108.8550  -31.8570 C.ar  373  PHE373     -0.0003
     51  CZ         9.4520 -110.1460  -31.9850 C.ar  373  PHE373     -0.0000
     52  N          3.3460 -117.1720  -30.5850 N.3   396  ARG396     -0.1231
     53  CA         3.9720 -115.9940  -30.0080 C.3   396  ARG396      0.1694
     54  C          3.6050 -114.7710  -30.8530 C.2   396  ARG396      0.2592
     55  O          4.0380 -114.6240  -32.0190 O.2   396  ARG396     -0.2718
     56  CB         5.5020 -116.1810  -29.9050 C.3   396  ARG396      0.0321
     57  CG         5.8760 -117.3340  -28.9440 C.3   396  ARG396      0.0489
     58  CD         7.3110 -117.9020  -29.2110 C.3   396  ARG396      0.2205
     59  NE         8.3390 -116.8780  -28.9610 N.pl3 396  ARG396     -0.0865
     60  CZ         9.6470 -117.0270  -29.2040 C.cat 396  ARG396      0.5346
     61  NH1       10.1150 -118.1590  -29.7140 N.pl3 396  ARG396      0.1354
     62  NH2       10.5000 -116.0390  -28.9550 N.pl3 396  ARG396      0.1354
     63  N          2.8220 -113.8700  -30.2700 N.am  397  LEU397     -0.1966
     64  CA         2.3070 -112.7570  -31.0480 C.3   397  LEU397      0.1728
     65  C          2.6180 -111.4380  -30.3610 C.2   397  LEU397      0.2616
     66  O          2.1580 -111.1590  -29.2370 O.2   397  LEU397     -0.2715
     67  CB         0.7960 -112.9600  -31.2280 C.3   397  LEU397      0.0311
     68  CG        -0.0070 -111.9740  -32.0890 C.3   397  LEU397      0.0022
     69  CD1        0.4770 -111.9880  -33.5270 C.3   397  LEU397      0.0001
     70  CD2       -1.4020 -112.4090  -32.0700 C.3   397  LEU397      0.0001
     71  N          3.4150 -110.6420  -31.0390 N.am  398  CYS398     -0.1968
     72  CA         3.8720 -109.3900  -30.5270 C.3   398  CYS398      0.1712
     73  C          3.2360 -108.2440  -31.3190 C.2   398  CYS398      0.2296
     74  O          3.5650 -108.0010  -32.4900 O.2   398  CYS398     -0.2864
     75  CB         5.3560 -109.2780  -30.6720 C.3   398  CYS398      0.0983
     76  SG         5.9000 -107.6680  -30.1010 S.3   398  CYS398     -0.0798
     77  N          3.5510 -123.2640  -25.6210 N.3   429  ARG429     -0.1245
     78  CA         4.1750 -121.9690  -25.4530 C.3   429  ARG429      0.1563
     79  C          3.2630 -120.9190  -25.9850 C.2   429  ARG429      0.2260
     80  O          2.7170 -121.0700  -27.0800 O.2   429  ARG429     -0.2867
     81  CB         5.5100 -121.8740  -26.2190 C.3   429  ARG429      0.0307
     82  CG         6.2160 -120.5210  -25.9540 C.3   429  ARG429      0.0489
     83  CD         7.6450 -120.6100  -26.3130 C.3   429  ARG429      0.2205
     84  NE         8.3250 -119.3520  -26.0320 N.pl3 429  ARG429     -0.0865
     85  CZ         9.5940 -119.1540  -26.3140 C.cat 429  ARG429      0.5346
     86  NH1       10.3040 -120.1520  -26.8710 N.pl3 429  ARG429      0.1354
     87  NH2       10.1470 -117.9660  -26.0420 N.pl3 429  ARG429      0.1354
     88  N          3.0820 -116.4790  -26.1110 N.3   431  SER431     -0.1202
     89  CA         3.3230 -115.1090  -25.6710 C.3   431  SER431      0.2020
     90  C          2.2260 -114.2730  -26.2890 C.2   431  SER431      0.2619
     91  O          1.8490 -114.4930  -27.4530 O.2   431  SER431     -0.2717
     92  CB         4.7200 -114.6090  -26.0330 C.3   431  SER431      0.2103
     93  OG         4.9320 -114.5800  -27.4180 O.3   431  SER431     -0.2182
     94  N          1.6640 -113.3580  -25.4980 N.am  432  LEU432     -0.1965
     95  CA         0.5530 -112.5690  -26.0150 C.3   432  LEU432      0.1728
     96  C          0.7720 -111.0990  -25.6730 C.2   432  LEU432      0.2616
     97  O          1.6110 -110.7700  -24.8630 O.2   432  LEU432     -0.2715
     98  CB        -0.7790 -113.0250  -25.4580 C.3   432  LEU432      0.0311
     99  CG        -1.1380 -113.7370  -24.1530 C.3   432  LEU432      0.0022
    100  CD1       -0.1080 -113.7570  -23.0000 C.3   432  LEU432      0.0001
    101  CD2       -2.5450 -113.4020  -23.7290 C.3   432  LEU432      0.0001
    102  N          0.0580 -110.2230  -26.3560 N.am  433  SER433     -0.1950
    103  CA         0.2760 -108.7980  -26.1520 C.3   433  SER433      0.1924
    104  C         -1.0100 -108.1350  -26.6160 C.2   433  SER433      0.2314
    105  O         -2.0130 -108.8170  -26.8900 O.2   433  SER433     -0.2863
    106  CB         1.5130 -108.2890  -26.9160 C.3   433  SER433      0.2116
    107  OG         1.4090 -108.6660  -28.2700 O.3   433  SER433     -0.2180
    108  N          4.8550 -115.9000  -21.6760 N.3   455  SER455     -0.1202
    109  CA         5.5210 -114.6070  -21.5770 C.3   455  SER455      0.2020
    110  C          4.4180 -113.5520  -21.6820 C.2   455  SER455      0.2619
    111  O          3.6060 -113.6100  -22.5850 O.2   455  SER455     -0.2717
    112  CB         6.5220 -114.4110  -22.7240 C.3   455  SER455      0.2103
    113  OG         7.4920 -115.4600  -22.7950 O.3   455  SER455     -0.2182
    114  N          4.4330 -112.5630  -20.7920 N.am  456  VAL456     -0.1965
    115  CA         3.3220 -111.6120  -20.6430 C.3   456  VAL456      0.1727
    116  C          3.9370 -110.2260  -20.4770 C.2   456  VAL456      0.2616
    117  O          4.8780 -110.1030  -19.7510 O.2   456  VAL456     -0.2715
    118  CB         2.5580 -111.9370  -19.3190 C.3   456  VAL456      0.0290
    119  CG1        1.2690 -111.2090  -19.2690 C.3   456  VAL456      0.0023
    120  CG2        2.2670 -113.4460  -19.2220 C.3   456  VAL456      0.0023
    121  N          3.4100 -109.1700  -21.1190 N.am  457  ALA457     -0.1977
    122  CA         3.9390 -107.8380  -20.8400 C.3   457  ALA457      0.1597
    123  C          2.7950 -106.8550  -20.9090 C.2   457  ALA457      0.2287
    124  O          1.9310 -107.0280  -21.7600 O.2   457  ALA457     -0.2864
    125  CB         5.0080 -107.4520  -21.8830 C.3   457  ALA457      0.0319
    126  N          7.2380 -115.6550  -17.3630 N.3   480  GLU480     -0.1245
    127  CA         8.0540 -114.4440  -17.3470 C.3   480  GLU480      0.1567
    128  C          7.1470 -113.2800  -17.6190 C.2   480  GLU480      0.2260
    129  O          6.3510 -113.3130  -18.5730 O.2   480  GLU480     -0.2867
    130  CB         9.1960 -114.5070  -18.3740 C.3   480  GLU480      0.0388
    131  CG         8.7740 -114.8970  -19.7840 C.3   480  GLU480      0.1160
    132  CD         9.9370 -115.3320  -20.6830 C.2   480  GLU480      0.3649
    133  OE1        9.7720 -115.3770  -21.9400 O.co2 480  GLU480     -0.2457
    134  OE2       11.0130 -115.6140  -20.1530 O.co2 480  GLU480     -0.2457
    135  N          6.4140 -108.8860  -17.3900 N.3   482  ARG482     -0.1245
    136  CA         6.9280 -107.5520  -17.1660 C.3   482  ARG482      0.1563
    137  C          5.8020 -106.5280  -17.2600 C.2   482  ARG482      0.2260
    138  O          4.8280 -106.6770  -18.0390 O.2   482  ARG482     -0.2867
    139  CB         8.0840 -107.2260  -18.1380 C.3   482  ARG482      0.0307
    140  CG         7.6620 -107.3200  -19.5890 C.3   482  ARG482      0.0489
    141  CD         8.6830 -106.6330  -20.5060 C.3   482  ARG482      0.2205
    142  NE         8.7320 -105.1790  -20.2560 N.pl3 482  ARG482     -0.0865
    143  CZ         9.5160 -104.3380  -20.9230 C.cat 482  ARG482      0.5346
    144  NH1       10.2900 -104.7980  -21.8980 N.pl3 482  ARG482      0.1354
    145  NH2        9.5290 -103.0430  -20.6180 N.pl3 482  ARG482      0.1354
@<TRIPOS>BOND
     1    44    43    2
     2    36    35    2
     3    43    42    1
     4    41    42    1
     5    45    42    1
     6    45    46    1
     7    35    34    1
     8    33    34    1
     9    47    46   ar
    10    47    49   ar
    11    34    37    1
    12    46    48   ar
    13    37    38    1
    14    69    68    1
    15    49    51   ar
    16    38    40    1
    17    38    39    1
    18    48    50   ar
    19    74    73    2
    20    68    70    1
    21    68    67    1
    22    55    54    2
    23    51    50   ar
    24    73    72    1
    25    67    64    1
    26    64    65    1
    27    64    63    1
    28    71    72    1
    29    71    65   am
    30    54    63   am
    31    54    53    1
    32    75    72    1
    33    75    76    1
    34    52    53    1
    35    65    66    2
    36    53    56    1
    37    56    57    1
    38    61    60    1
    39    58    59    1
    40    58    57    1
    41    60    59    2
    42    60    62    1
    43   107   106    1
    44    91    90    2
    45    93    92    1
    46    80    79    2
    47   106   103    1
    48   105   104    2
    49    86    85    1
    50   104   103    1
    51    30    32   ar
    52    30    28   ar
    53   102   103    1
    54   102    96   am
    55    85    87    1
    56    85    84    2
    57    83    84    1
    58    83    82    1
    59    90    89    1
    60    90    94   am
    61    81    82    1
    62    81    78    1
    63    88    89    1
    64    92    89    1
    65    95    96    1
    66    95    94    1
    67    95    98    1
    68    79    78    1
    69    32    31   ar
    70    28    27   ar
    71    96    97    2
    72    77    78    1
    73    98    99    1
    74    10     9   ar
    75    10     8   ar
    76     9     7   ar
    77    27    29   ar
    78    27    26    1
    79    31    29   ar
    80     8     6   ar
    81    99   101    1
    82    99   100    1
    83    23    26    1
    84    23    22    1
    85    23    24    1
    86     7     6   ar
    87     6     5    1
    88    24    25    2
    89   113   112    1
    90   112   109    1
    91     4     3    2
    92   111   110    2
    93     5     2    1
    94   133   132   ar
    95   144   143    1
    96   125   122    1
    97   124   123    2
    98   110   109    1
    99   110   114   am
   100   108   109    1
   101     3     2    1
   102     3    11   am
   103     2     1    1
   104   121   122    1
   105   121   116   am
   106    19    17   ar
   107    19    21   ar
   108    14    13    2
   109   143   145    1
   110   143   142    2
   111   123   122    1
   112    17    16   ar
   113   114   115    1
   114    13    12    1
   115   132   134   ar
   116   132   131    1
   117    12    11    1
   118    12    15    1
   119   115   116    1
   120   115   118    1
   121   141   142    1
   122   141   140    1
   123   116   117    2
   124    21    20   ar
   125    16    15    1
   126    16    18   ar
   127   131   130    1
   128   140   139    1
   129   118   119    1
   130   118   120    1
   131    20    18   ar
   132   129   128    2
   133   130   127    1
   134   139   136    1
   135   138   137    2
   136   128   127    1
   137   135   136    1
   138   126   127    1
   139   137   136    1
