@<TRIPOS>MOLECULE
tmp/2p1qB01.pdb
 136 131 0 0 0
SMALL
GASTEIGER

@<TRIPOS>ATOM
      1  N         15.5000 -115.8940  -20.0330 N.3    70  HIS70      -0.1226
      2  CA        15.1760 -115.3580  -21.3660 C.3    70  HIS70       0.1752
      3  C         15.1490 -113.8230  -21.4760 C.2    70  HIS70       0.2596
      4  O         15.5550 -113.2440  -22.5090 O.2    70  HIS70      -0.2718
      5  CB        13.8170 -115.9400  -21.7850 C.3    70  HIS70       0.0759
      6  CG        13.3040 -115.4380  -23.1030 C.ar   70  HIS70       0.0818
      7  ND1       11.9610 -115.2950  -23.3660 N.ar   70  HIS70      -0.2268
      8  CD2       13.9480 -115.0810  -24.2430 C.ar   70  HIS70       0.1154
      9  CE1       11.7960 -114.8660  -24.6040 C.ar   70  HIS70       0.1986
     10  NE2       12.9910 -114.7130  -25.1520 N.ar   70  HIS70      -0.2212
     11  N         14.6510 -113.1500  -20.4400 N.am   71  PHE71      -0.1976
     12  CA        14.4870 -111.6720  -20.5020 C.3    71  PHE71       0.1639
     13  C         15.8470 -110.9360  -20.4810 C.2    71  PHE71       0.2290
     14  O         15.9220 -109.7190  -20.7000 O.2    71  PHE71      -0.2864
     15  CB        13.5600 -111.1830  -19.3650 C.3    71  PHE71       0.0560
     16  CG        12.0490 -111.2300  -19.6970 C.ar   71  PHE71      -0.0200
     17  CD1       11.5550 -111.9900  -20.7660 C.ar   71  PHE71      -0.0042
     18  CD2       11.1330 -110.5660  -18.8960 C.ar   71  PHE71      -0.0042
     19  CE1       10.1820 -112.0430  -21.0450 C.ar   71  PHE71      -0.0003
     20  CE2        9.7880 -110.6220  -19.1600 C.ar   71  PHE71      -0.0003
     21  CZ         9.2990 -111.3560  -20.2300 C.ar   71  PHE71      -0.0000
     22  N         16.4980 -109.0440  -23.5830 N.3    74  PHE74      -0.1241
     23  CA        15.8780 -107.7450  -23.7460 C.3    74  PHE74       0.1605
     24  C         16.4500 -106.6670  -22.8020 C.2    74  PHE74       0.2264
     25  O         15.8170 -105.6790  -22.5510 O.2    74  PHE74      -0.2867
     26  CB        14.3500 -107.8430  -23.5960 C.3    74  PHE74       0.0534
     27  CG        13.7560 -109.0270  -24.3160 C.ar   74  PHE74      -0.0203
     28  CD1       14.0680 -109.2800  -25.6470 C.ar   74  PHE74      -0.0042
     29  CD2       12.8930 -109.8810  -23.6550 C.ar   74  PHE74      -0.0042
     30  CE1       13.5400 -110.4010  -26.3410 C.ar   74  PHE74      -0.0003
     31  CE2       12.3390 -111.0060  -24.3170 C.ar   74  PHE74      -0.0003
     32  CZ        12.6610 -111.2610  -25.6730 C.ar   74  PHE74      -0.0000
     33  N          6.0580 -117.0930  -34.6450 N.3   370  LEU370     -0.1245
     34  CA         6.5050 -115.8670  -33.9340 C.3   370  LEU370      0.1561
     35  C          6.2050 -114.7300  -34.8810 C.2   370  LEU370      0.2260
     36  O          6.7010 -114.7290  -36.0140 O.2   370  LEU370     -0.2867
     37  CB         8.0220 -115.9230  -33.5870 C.3   370  LEU370      0.0270
     38  CG         8.6340 -114.6110  -33.0260 C.3   370  LEU370      0.0019
     39  CD1        7.9410 -114.1310  -31.6800 C.3   370  LEU370      0.0001
     40  CD2       10.1160 -114.7950  -32.7210 C.3   370  LEU370      0.0001
     41  N          5.5280 -110.4790  -35.4850 N.3   372  PHE372     -0.1241
     42  CA         5.5780 -109.1010  -34.9770 C.3   372  PHE372      0.1605
     43  C          4.7460 -108.2770  -35.9350 C.2   372  PHE372      0.2264
     44  O          4.9960 -108.2920  -37.1620 O.2   372  PHE372     -0.2867
     45  CB         7.0140 -108.5460  -34.9590 C.3   372  PHE372      0.0534
     46  CG         7.8810 -109.0910  -33.8660 C.ar  372  PHE372     -0.0203
     47  CD1        8.4730 -110.3650  -33.9940 C.ar  372  PHE372     -0.0042
     48  CD2        8.1750 -108.3360  -32.7570 C.ar  372  PHE372     -0.0042
     49  CE1        9.3180 -110.8730  -32.9850 C.ar  372  PHE372     -0.0003
     50  CE2        9.0240 -108.8380  -31.7170 C.ar  372  PHE372     -0.0003
     51  CZ         9.5980 -110.1170  -31.8520 C.ar  372  PHE372     -0.0000
     52  N          3.4470 -117.1670  -30.5350 N.3   395  ARG395     -0.1231
     53  CA         4.1090 -115.9910  -29.9430 C.3   395  ARG395      0.1694
     54  C          3.7260 -114.7770  -30.8030 C.2   395  ARG395      0.2592
     55  O          4.0750 -114.6640  -32.0060 O.2   395  ARG395     -0.2718
     56  CB         5.6150 -116.2030  -29.8980 C.3   395  ARG395      0.0321
     57  CG         6.0270 -117.3200  -28.9310 C.3   395  ARG395      0.0489
     58  CD         7.4750 -117.8310  -29.1510 C.3   395  ARG395      0.2205
     59  NE         8.4330 -116.7130  -28.8990 N.pl3 395  ARG395     -0.0865
     60  CZ         9.7330 -116.8230  -29.0840 C.cat 395  ARG395      0.5346
     61  NH1       10.2290 -117.9920  -29.5380 N.pl3 395  ARG395      0.1354
     62  NH2       10.5440 -115.7940  -28.7960 N.pl3 395  ARG395      0.1354
     63  N          2.9440 -113.8990  -30.2060 N.am  396  LEU396     -0.1966
     64  CA         2.4200 -112.7560  -30.9420 C.3   396  LEU396      0.1728
     65  C          2.7860 -111.4620  -30.2380 C.2   396  LEU396      0.2616
     66  O          2.3870 -111.2250  -29.0800 O.2   396  LEU396     -0.2715
     67  CB         0.9000 -112.8710  -31.0830 C.3   396  LEU396      0.0311
     68  CG         0.2450 -111.6260  -31.7390 C.3   396  LEU396      0.0022
     69  CD1        0.6540 -111.5890  -33.2290 C.3   396  LEU396      0.0001
     70  CD2       -1.2070 -111.6930  -31.6340 C.3   396  LEU396      0.0001
     71  N          3.5280 -110.6290  -30.9500 N.am  397  CYS397     -0.1968
     72  CA         3.9950 -109.3540  -30.4340 C.3   397  CYS397      0.1712
     73  C          3.4060 -108.2270  -31.2650 C.2   397  CYS397      0.2296
     74  O          3.7970 -107.9970  -32.4010 O.2   397  CYS397     -0.2864
     75  CB         5.5190 -109.2870  -30.4570 C.3   397  CYS397      0.0983
     76  SG         6.1140 -107.6410  -29.9700 S.3   397  CYS397     -0.0798
     77  N          3.6760 -123.2560  -25.6650 N.3   428  ARG428     -0.1245
     78  CA         4.3280 -121.9510  -25.4980 C.3   428  ARG428      0.1563
     79  C          3.3840 -120.8870  -25.9830 C.2   428  ARG428      0.2260
     80  O          2.8230 -121.0070  -27.0850 O.2   428  ARG428     -0.2867
     81  CB         5.6310 -121.8550  -26.3040 C.3   428  ARG428      0.0307
     82  CG         6.3120 -120.4800  -26.0240 C.3   428  ARG428      0.0489
     83  CD         7.7590 -120.5070  -26.1000 C.3   428  ARG428      0.2205
     84  NE         8.3810 -119.1900  -25.8820 N.pl3 428  ARG428     -0.0865
     85  CZ         9.6510 -118.9950  -26.1940 C.cat 428  ARG428      0.5346
     86  NH1       10.3210 -120.0230  -26.7390 N.pl3 428  ARG428      0.1354
     87  NH2       10.2230 -117.7960  -25.9820 N.pl3 428  ARG428      0.1354
     88  N          3.1150 -116.4040  -26.0120 N.3   430  SER430     -0.1202
     89  CA         3.3930 -115.0310  -25.5720 C.3   430  SER430      0.2020
     90  C          2.2570 -114.1320  -26.0800 C.2   430  SER430      0.2619
     91  O          1.7600 -114.3280  -27.2120 O.2   430  SER430     -0.2717
     92  CB         4.7950 -114.5850  -25.9860 C.3   430  SER430      0.2103
     93  OG         4.9050 -114.5280  -27.3920 O.3   430  SER430     -0.2182
     94  N          1.8930 -113.1540  -25.2270 N.am  431  LEU431     -0.1965
     95  CA         0.6610 -112.3570  -25.3240 C.3   431  LEU431      0.1728
     96  C          1.0630 -110.9310  -25.5760 C.2   431  LEU431      0.2616
     97  O          2.1470 -110.5280  -25.1480 O.2   431  LEU431     -0.2715
     98  CB         0.0000 -112.3090  -23.8980 C.3   431  LEU431      0.0311
     99  CG        -0.5060 -113.6260  -23.3300 C.3   431  LEU431      0.0022
    100  CD1       -0.8260 -113.4800  -21.8290 C.3   431  LEU431      0.0001
    101  CD2       -1.7960 -113.8980  -24.1030 C.3   431  LEU431      0.0001
    102  N          0.1830 -110.1500  -26.2090 N.am  432  SER432     -0.1950
    103  CA         0.3790 -108.6990  -26.2030 C.3   432  SER432      0.1924
    104  C         -0.9400 -108.0640  -26.5580 C.2   432  SER432      0.2314
    105  O         -1.9490 -108.7560  -26.7270 O.2   432  SER432     -0.2863
    106  CB         1.4800 -108.2640  -27.2210 C.3   432  SER432      0.2116
    107  OG         1.2170 -108.8400  -28.4930 O.3   432  SER432     -0.2180
    108  N          4.9080 -115.8340  -21.6420 N.3   454  SER454     -0.1202
    109  CA         5.6320 -114.5520  -21.5170 C.3   454  SER454      0.2020
    110  C          4.5310 -113.4880  -21.5810 C.2   454  SER454      0.2619
    111  O          3.6490 -113.5330  -22.4730 O.2   454  SER454     -0.2717
    112  CB         6.5860 -114.3210  -22.7210 C.3   454  SER454      0.2103
    113  OG         7.5250 -115.3890  -22.8950 O.3   454  SER454     -0.2182
    114  N          4.5970 -112.5120  -20.6660 N.am  455  VAL455     -0.1965
    115  CA         3.4940 -111.5510  -20.4860 C.3   455  VAL455      0.1727
    116  C          4.1270 -110.1500  -20.3120 C.2   455  VAL455      0.2616
    117  O          5.1050 -110.0230  -19.5900 O.2   455  VAL455     -0.2715
    118  CB         2.6810 -111.8920  -19.2140 C.3   455  VAL455      0.0290
    119  CG1        1.3530 -111.1180  -19.2000 C.3   455  VAL455      0.0023
    120  CG2        2.3480 -113.4060  -19.1300 C.3   455  VAL455      0.0023
    121  N          3.5980 -109.1230  -20.9980 N.am  456  ALA456     -0.1977
    122  CA         4.0400 -107.7490  -20.7360 C.3   456  ALA456      0.1597
    123  C          2.8460 -106.8040  -20.8380 C.2   456  ALA456      0.2287
    124  O          1.9710 -106.9930  -21.6900 O.2   456  ALA456     -0.2864
    125  CB         5.1070 -107.3220  -21.7500 C.3   456  ALA456      0.0319
    126  N          6.5340 -108.8320  -17.2500 N.3   481  ARG481     -0.1245
    127  CA         7.0840 -107.4940  -16.9800 C.3   481  ARG481      0.1563
    128  C          5.9330 -106.4920  -17.0330 C.2   481  ARG481      0.2260
    129  O          5.0160 -106.6490  -17.8420 O.2   481  ARG481     -0.2867
    130  CB         8.1650 -107.1370  -18.0270 C.3   481  ARG481      0.0307
    131  CG         7.6630 -107.2130  -19.4750 C.3   481  ARG481      0.0489
    132  CD         8.5910 -106.5080  -20.4800 C.3   481  ARG481      0.2205
    133  NE         8.6740 -105.0760  -20.1950 N.pl3 481  ARG481     -0.0865
    134  CZ         9.5580 -104.2460  -20.7510 C.cat 481  ARG481      0.5346
    135  NH1       10.4240 -104.6860  -21.6610 N.pl3 481  ARG481      0.1354
    136  NH2        9.5570 -102.9680  -20.4140 N.pl3 481  ARG481      0.1354
@<TRIPOS>BOND
     1    44    43    2
     2    36    35    2
     3    43    42    1
     4    41    42    1
     5    42    45    1
     6    45    46    1
     7    35    34    1
     8    33    34    1
     9    47    46   ar
    10    47    49   ar
    11    34    37    1
    12    46    48   ar
    13    37    38    1
    14    69    68    1
    15    38    40    1
    16    38    39    1
    17    49    51   ar
    18    48    50   ar
    19    74    73    2
    20    55    54    2
    21    51    50   ar
    22    68    70    1
    23    68    67    1
    24    73    72    1
    25    67    64    1
    26    71    72    1
    27    71    65   am
    28    64    65    1
    29    64    63    1
    30    54    63   am
    31    54    53    1
    32    52    53    1
    33    75    72    1
    34    75    76    1
    35    65    66    2
    36    53    56    1
    37    56    57    1
    38    61    60    1
    39    58    57    1
    40    58    59    1
    41    60    59    2
    42    60    62    1
    43   107   106    1
    44    93    92    1
    45   106   103    1
    46    91    90    2
    47    80    79    2
    48    86    85    1
    49   105   104    2
    50   104   103    1
    51    30    32   ar
    52    30    28   ar
    53    81    82    1
    54    81    78    1
    55   102   103    1
    56   102    96   am
    57    85    87    1
    58    85    84    2
    59    83    82    1
    60    83    84    1
    61    90    89    1
    62    90    94   am
    63    88    89    1
    64    92    89    1
    65    79    78    1
    66    32    31   ar
    67    77    78    1
    68    28    27   ar
    69    96    95    1
    70    96    97    2
    71    95    94    1
    72    95    98    1
    73    10     9   ar
    74    10     8   ar
    75     9     7   ar
    76    31    29   ar
    77    27    29   ar
    78    27    26    1
    79     8     6   ar
    80   101    99    1
    81    98    99    1
    82    23    26    1
    83    23    22    1
    84    23    24    1
    85     7     6   ar
    86    99   100    1
    87     6     5    1
    88   113   112    1
    89    24    25    2
    90   112   109    1
    91     4     3    2
    92   111   110    2
    93     5     2    1
    94   125   122    1
    95   124   123    2
    96   135   134    1
    97   108   109    1
    98   110   109    1
    99   110   114   am
   100     3     2    1
   101     3    11   am
   102     2     1    1
   103    19    17   ar
   104    19    21   ar
   105   121   122    1
   106   121   116   am
   107   123   122    1
   108    17    16   ar
   109   134   136    1
   110   134   133    2
   111    14    13    2
   112   114   115    1
   113    12    13    1
   114    12    11    1
   115    12    15    1
   116   115   116    1
   117   115   118    1
   118   132   133    1
   119   132   131    1
   120   116   117    2
   121    21    20   ar
   122    16    15    1
   123    16    18   ar
   124   131   130    1
   125   118   119    1
   126   118   120    1
   127    20    18   ar
   128   130   127    1
   129   129   128    2
   130   126   127    1
   131   128   127    1
