@<TRIPOS>MOLECULE
tmp/2p1sA03.pdb
 120 120 0 0 0
SMALL
GASTEIGER

@<TRIPOS>ATOM
      1  N         18.6520   20.4390    1.9020 N.3    79  HIS79      -0.1241
      2  CA        19.7740   20.8690    2.7560 C.3    79  HIS79       0.1621
      3  C         21.0730   20.3870    2.1020 C.2    79  HIS79       0.2264
      4  O         22.0440   20.0350    2.7820 O.2    79  HIS79      -0.2867
      5  CB        19.6850   20.2970    4.1810 C.3    79  HIS79       0.0745
      6  CG        18.3040   20.2960    4.7710 C.ar   79  HIS79       0.0817
      7  ND1       17.3900   19.2890    4.5300 N.ar   79  HIS79      -0.2268
      8  CD2       17.6950   21.1570    5.6220 C.ar   79  HIS79       0.1154
      9  CE1       16.2730   19.5400    5.1910 C.ar   79  HIS79       0.1986
     10  NE2       16.4320   20.6670    5.8620 N.ar   79  HIS79      -0.2212
     11  N         20.0910   19.0890    9.4380 N.3    88  PRO88      -0.2102
     12  CA        18.9730   18.6280   10.2730 C.3    88  PRO88       0.1504
     13  C         18.6350   17.1670    9.9520 C.2    88  PRO88       0.2576
     14  O         18.8420   16.7440    8.8260 O.2    88  PRO88      -0.2718
     15  CB        17.8080   19.5250    9.8420 C.3    88  PRO88       0.0282
     16  CG        18.4500   20.7040    9.1750 C.3    88  PRO88       0.0208
     17  CD        19.7210   20.2220    8.5650 C.3    88  PRO88       0.0893
     18  N         18.1510   16.4120   10.9350 N.am   89  THR89      -0.1939
     19  CA        17.7550   15.0330   10.6810 C.3    89  THR89       0.2028
     20  C         16.3470   15.0030   10.1000 C.2    89  THR89       0.2642
     21  O         15.5140   15.8500   10.4060 O.2    89  THR89      -0.2714
     22  CB        17.8300   14.1660   11.9610 C.3    89  THR89       0.1808
     23  OG1       17.1790   14.8500   13.0360 O.3    89  THR89      -0.2208
     24  CG2       19.2750   14.0500   12.4490 C.3    89  THR89       0.0379
     25  N         16.0750   14.0270    9.2460 N.am   90  GLU90      -0.1963
     26  CA        14.7510   13.9610    8.6440 C.3    90  GLU90       0.1733
     27  C         13.8130   12.9070    9.2430 C.2    90  GLU90       0.2616
     28  O         12.5880   13.0290    9.1520 O.2    90  GLU90      -0.2715
     29  CB        14.8810   13.8040    7.1270 C.3    90  GLU90       0.0429
     30  CG        15.5800   15.0080    6.4880 C.3    90  GLU90       0.1163
     31  CD        16.1350   14.7030    5.1060 C.2    90  GLU90       0.3649
     32  OE1       15.3370   14.3920    4.1890 O.co2  90  GLU90      -0.2457
     33  OE2       17.3760   14.7670    4.9520 O.co2  90  GLU90      -0.2457
     34  N         14.3720   11.8950    9.8740 N.am   91  GLY91      -0.1955
     35  CA        13.5530   10.8360   10.4360 C.3    91  GLY91       0.1869
     36  C         13.4560    9.6870    9.4430 C.2    91  GLY91       0.2309
     37  O         13.7860    9.8220    8.2610 O.2    91  GLY91      -0.2863
     38  N          6.4310    8.7330   10.9140 N.3   250  VAL250     -0.1245
     39  CA         7.8350    9.0280   10.7610 C.3   250  VAL250      0.1561
     40  C          8.5240    9.0010   12.1380 C.2   250  VAL250      0.2260
     41  O          8.0490    9.5690   13.1210 O.2   250  VAL250     -0.2867
     42  CB         8.2100   10.2140    9.8050 C.3   250  VAL250      0.0252
     43  CG1        6.9620   10.9650    9.2440 C.3   250  VAL250      0.0019
     44  CG2        9.3000   11.0880   10.3810 C.3   250  VAL250      0.0019
     45  N         11.8210    9.4280   14.8600 N.3   252  PRO252     -0.2102
     46  CA        13.0730   10.1630   15.0820 C.3   252  PRO252      0.1504
     47  C         14.3040    9.2340   14.8960 C.2   252  PRO252      0.2575
     48  O         14.2710    8.0630   15.2910 O.2   252  PRO252     -0.2718
     49  CB        12.9380   10.6770   16.5280 C.3   252  PRO252      0.0282
     50  CG        11.9750    9.8200   17.1780 C.3   252  PRO252      0.0208
     51  CD        11.0010    9.2710   16.0830 C.3   252  PRO252      0.0893
     52  N         15.3540    9.7230   14.2320 N.am  253  ASN253     -0.1975
     53  CA        16.5330    8.9070   14.0260 C.3   253  ASN253      0.1688
     54  C         17.1270    8.3960   15.3610 C.2   253  ASN253      0.2292
     55  O         16.9240    9.0140   16.4320 O.2   253  ASN253     -0.2864
     56  CB        17.6170    9.7150   13.3070 C.3   253  ASN253      0.1181
     57  CG        17.2860    9.9840   11.8210 C.2   253  ASN253      0.2629
     58  OD1       16.4130    9.3410   11.2140 O.2   253  ASN253     -0.2716
     59  ND2       17.9820   10.9270   11.2490 N.am  253  ASN253     -0.0877
     60  N         12.0430   16.8670   23.6080 N.3   318  GLU318     -0.1231
     61  CA        12.0900   17.7100   22.4280 C.3   318  GLU318      0.1699
     62  C         12.6420   16.9290   21.2460 C.2   318  GLU318      0.2592
     63  O         12.1620   17.0680   20.1050 O.2   318  GLU318     -0.2718
     64  CB        12.9940   18.9220   22.6790 C.3   318  GLU318      0.0402
     65  CG        12.3630   20.0000   23.5370 C.3   318  GLU318      0.1161
     66  CD        13.3650   21.1060   23.8260 C.2   318  GLU318      0.3649
     67  OE1       14.4770   20.7840   24.2700 O.co2 318  GLU318     -0.2457
     68  OE2       13.0290   22.2840   23.5850 O.co2 318  GLU318     -0.2457
     69  N         13.6250   16.0830   21.5210 N.am  319  TYR319     -0.1962
     70  CA        14.2160   15.2840   20.4530 C.3   319  TYR319      0.1771
     71  C         13.2030   14.2890   19.8570 C.2   319  TYR319      0.2619
     72  O         13.1200   14.1620   18.6280 O.2   319  TYR319     -0.2715
     73  CB        15.4930   14.5690   20.9080 C.3   319  TYR319      0.0574
     74  CG        16.0950   13.7640   19.7850 C.ar  319  TYR319     -0.0198
     75  CD1       16.8520   14.3880   18.7940 C.ar  319  TYR319     -0.0009
     76  CD2       15.8200   12.4000   19.6560 C.ar  319  TYR319     -0.0009
     77  CE1       17.3710   13.6690   17.7150 C.ar  319  TYR319      0.0417
     78  CE2       16.3210   11.6840   18.5750 C.ar  319  TYR319      0.0417
     79  CZ        17.0740   12.3200   17.6160 C.ar  319  TYR319      0.1957
     80  OH        17.5890   11.6190   16.5670 O.3   319  TYR319     -0.2866
     81  N         12.4600   13.5820   20.7020 N.am  320  LEU320     -0.1963
     82  CA        11.5000   12.5970   20.2230 C.3   320  LEU320      0.1728
     83  C         10.2670   13.2700   19.6140 C.2   320  LEU320      0.2617
     84  O          9.6540   12.7050   18.7070 O.2   320  LEU320     -0.2715
     85  CB        11.0600   11.6390   21.3290 C.3   320  LEU320      0.0311
     86  CG        12.2060   10.7820   21.8740 C.3   320  LEU320      0.0022
     87  CD1       11.6660    9.9240   23.0080 C.3   320  LEU320      0.0001
     88  CD2       12.8870    9.9180   20.7550 C.3   320  LEU320      0.0001
     89  N          9.9070   14.4590   20.1390 N.am  321  GLY321     -0.1940
     90  CA         8.7690   15.2210   19.6330 C.3   321  GLY321      0.2014
     91  C          7.5200   14.8610   20.4200 C.2   321  GLY321      0.2640
     92  O          7.3480   13.7160   20.8750 O.2   321  GLY321     -0.2714
     93  N          6.6060   15.8220   20.5560 N.am  322  THR322     -0.1936
     94  CA         5.4170   15.6030   21.3850 C.3   322  THR322      0.2028
     95  C          4.4680   14.5470   20.8580 C.2   322  THR322      0.2642
     96  O          3.8490   13.8500   21.6290 O.2   322  THR322     -0.2714
     97  CB         4.6460   16.9320   21.6220 C.3   322  THR322      0.1808
     98  OG1        4.7000   17.7240   20.4220 O.3   322  THR322     -0.2208
     99  CG2        5.3730   17.7720   22.6670 C.3   322  THR322      0.0379
    100  N          4.3360   14.4440   19.5520 N.am  323  GLU323     -0.1963
    101  CA         3.5140   13.3860   18.9530 C.3   323  GLU323      0.1733
    102  C          3.9800   11.9820   19.4270 C.2   323  GLU323      0.2616
    103  O          3.1890   11.1330   19.8890 O.2   323  GLU323     -0.2715
    104  CB         3.6270   13.4600   17.4140 C.3   323  GLU323      0.0429
    105  CG         2.5130   14.2280   16.6940 C.3   323  GLU323      0.1163
    106  CD         2.2890   13.7520   15.2520 C.2   323  GLU323      0.3649
    107  OE1        1.6560   12.6780   15.0610 O.co2 323  GLU323     -0.2457
    108  OE2        2.7520   14.4440   14.2970 O.co2 323  GLU323     -0.2457
    109  N          5.2780   11.7490   19.3300 N.am  324  TYR324     -0.1974
    110  CA         5.7990   10.4180   19.6360 C.3   324  TYR324      0.1639
    111  C          5.7780   10.0990   21.1200 C.2   324  TYR324      0.2290
    112  O          5.3330    9.0460   21.5160 O.2   324  TYR324     -0.2864
    113  CB         7.1580   10.1970   18.9460 C.3   324  TYR324      0.0560
    114  CG         7.7310    8.8090   19.1230 C.ar  324  TYR324     -0.0198
    115  CD1        6.9490    7.6700   18.9190 C.ar  324  TYR324     -0.0009
    116  CD2        9.0550    8.6440   19.4720 C.ar  324  TYR324     -0.0009
    117  CE1        7.4900    6.3940   19.0890 C.ar  324  TYR324      0.0417
    118  CE2        9.6120    7.3750   19.6660 C.ar  324  TYR324      0.0417
    119  CZ         8.8300    6.2600   19.4930 C.ar  324  TYR324      0.1957
    120  OH         9.3960    5.0140   19.6890 O.3   324  TYR324     -0.2866
@<TRIPOS>BOND
     1     1     2    1
     2     3     2    1
     3     3     4    2
     4     2     5    1
     5     5     6    1
     6    32    31   ar
     7     7     6   ar
     8     7     9   ar
     9     6     8   ar
    10    33    31   ar
    11    31    30    1
    12     9    10   ar
    13     8    10   ar
    14    30    29    1
    15    29    26    1
    16    37    36    2
    17    17    16    1
    18    17    11    1
    19    26    27    1
    20    26    25    1
    21    14    13    2
    22    28    27    2
    23    16    15    1
    24    27    34   am
    25    43    42    1
    26    25    20   am
    27    11    12    1
    28    36    35    1
    29    42    44    1
    30    42    39    1
    31    15    12    1
    32    34    35    1
    33    13    12    1
    34    13    18   am
    35    20    21    2
    36    20    19    1
    37    19    18    1
    38    19    22    1
    39    39    38    1
    40    39    40    1
    41    58    57    2
    42    59    57   am
    43    57    56    1
    44    22    24    1
    45    22    23    1
    46    40    41    2
    47    56    53    1
    48    53    52    1
    49    53    54    1
    50    52    47   am
    51   108   106   ar
    52    45    46    1
    53    45    51    1
    54    47    46    1
    55    47    48    2
    56   107   106   ar
    57    46    49    1
    58   106   105    1
    59    54    55    2
    60    51    50    1
    61    49    50    1
    62    80    79    1
    63   105   104    1
    64   104   101    1
    65    79    77   ar
    66    79    78   ar
    67    77    75   ar
    68    78    76   ar
    69    72    71    2
    70    84    83    2
    71    75    74   ar
    72   115   117   ar
    73   115   114   ar
    74   113   114    1
    75   113   110    1
    76   101   102    1
    77   101   100    1
    78   117   119   ar
    79   114   116   ar
    80   109   102   am
    81   109   110    1
    82   102   103    2
    83   116   118   ar
    84   119   118   ar
    85   119   120    1
    86   100    95   am
    87    83    89   am
    88    83    82    1
    89    90    89    1
    90    90    91    1
    91   110   111    1
    92    76    74   ar
    93    74    73    1
    94    71    70    1
    95    71    81   am
    96    63    62    2
    97    82    81    1
    98    82    85    1
    99    91    93   am
   100    91    92    2
   101    98    97    1
   102    70    73    1
   103    70    69    1
   104    93    94    1
   105    88    86    1
   106    95    94    1
   107    95    96    2
   108   111   112    2
   109    62    69   am
   110    62    61    1
   111    85    86    1
   112    94    97    1
   113    97    99    1
   114    86    87    1
   115    61    64    1
   116    61    60    1
   117    64    65    1
   118    65    66    1
   119    68    66   ar
   120    66    67   ar
