@<TRIPOS>MOLECULE
tmp/2p1uA01.pdb
 203 192 0 0 0
SMALL
GASTEIGER

@<TRIPOS>ATOM
      1  N          0.1440   26.6930   34.5560 N.3    18  VAL18      -0.1245
      2  CA        -0.3670   26.2370   33.2620 C.3    18  VAL18       0.1561
      3  C          0.3110   26.9580   32.0830 C.2    18  VAL18       0.2260
      4  O          0.7320   26.3250   31.1240 O.2    18  VAL18      -0.2867
      5  CB        -1.9220   26.2870   33.1820 C.3    18  VAL18       0.0252
      6  CG1       -2.4030   26.0490   31.7550 C.3    18  VAL18       0.0019
      7  CG2       -2.5250   25.2410   34.1170 C.3    18  VAL18       0.0019
      8  N          3.7750   25.7170   31.8500 N.3    21  ILE21      -0.1231
      9  CA         3.7420   24.3400   31.3600 C.3    21  ILE21       0.1692
     10  C          3.5620   24.3160   29.8470 C.2    21  ILE21       0.2592
     11  O          4.2230   23.5380   29.1550 O.2    21  ILE21      -0.2718
     12  CB         2.6380   23.5100   32.0600 C.3    21  ILE21       0.0266
     13  CG1        3.0730   23.1580   33.4890 C.3    21  ILE21       0.0019
     14  CG2        2.3240   22.2380   31.2660 C.3    21  ILE21       0.0020
     15  CD1        1.9370   22.8290   34.4360 C.3    21  ILE21       0.0001
     16  N          2.6730   25.1760   29.3480 N.am   22  CYS22      -0.1970
     17  CA         2.4580   25.3280   27.9120 C.3    22  CYS22       0.1712
     18  C          3.7040   25.8640   27.1930 C.2    22  CYS22       0.2296
     19  O          4.0740   25.3570   26.1330 O.2    22  CYS22      -0.2864
     20  CB         1.2110   26.1820   27.6270 C.3    22  CYS22       0.0983
     21  SG        -0.3360   25.3620   28.0830 S.3    22  CYS22      -0.0798
     22  N          6.8660   25.5050   28.2080 N.3    24  ALA24      -0.1231
     23  CA         7.8020   24.3820   28.2390 C.3    24  ALA24       0.1694
     24  C          7.5280   23.3400   27.1520 C.2    24  ALA24       0.2591
     25  O          8.4560   22.9030   26.4690 O.2    24  ALA24      -0.2718
     26  CB         7.8170   23.7300   29.6220 C.3    24  ALA24       0.0304
     27  N          6.2630   22.9540   26.9980 N.am   25  ALA25      -0.1980
     28  CA         5.8610   21.9460   26.0120 C.3    25  ALA25       0.1597
     29  C          6.1660   22.3920   24.5710 C.2    25  ALA25       0.2287
     30  O          6.7590   21.6430   23.8010 O.2    25  ALA25      -0.2864
     31  CB         4.3820   21.6210   26.1650 C.3    25  ALA25       0.0319
     32  N          9.8030   22.2040   23.9010 N.3    28  GLN28      -0.1245
     33  CA        10.3110   20.8280   23.7300 C.3    28  GLN28       0.1566
     34  C          9.9000   20.1710   22.4240 C.2    28  GLN28       0.2260
     35  O         10.5410   19.2130   21.9860 O.2    28  GLN28      -0.2867
     36  CB         9.9100   19.9130   24.8920 C.3    28  GLN28       0.0367
     37  CG        10.7730   20.0230   26.1160 C.3    28  GLN28       0.0905
     38  CD        12.2600   20.0260   25.8110 C.2    28  GLN28       0.2608
     39  OE1       12.8580   21.0890   25.6320 O.2    28  GLN28      -0.2717
     40  NE2       12.8620   18.8440   25.7500 N.am   28  GLN28      -0.0878
     41  N          3.7120   12.8390   20.0590 N.3    58  TRP58      -0.1227
     42  CA         4.4490   13.9240   20.7230 C.3    58  TRP58       0.1737
     43  C          4.1270   14.0640   22.2140 C.2    58  TRP58       0.2595
     44  O          5.0260   14.2980   23.0220 O.2    58  TRP58      -0.2718
     45  CB         4.2420   15.2810   20.0110 C.3    58  TRP58       0.0564
     46  CG         2.8460   15.8740   20.1400 C.ar   58  TRP58       0.0003
     47  CD1        1.8110   15.7220   19.2590 C.ar   58  TRP58       0.0946
     48  CD2        2.3560   16.7270   21.1850 C.ar   58  TRP58       0.0152
     49  NE1        0.7050   16.4010   19.6990 N.ar   58  TRP58      -0.2442
     50  CE2        1.0040   17.0210   20.8830 C.ar   58  TRP58       0.0810
     51  CE3        2.9120   17.2380   22.3700 C.ar   58  TRP58       0.0012
     52  CZ2        0.2010   17.8220   21.7120 C.ar   58  TRP58       0.0191
     53  CZ3        2.1130   18.0340   23.2010 C.ar   58  TRP58       0.0001
     54  CH2        0.7710   18.3210   22.8600 C.ar   58  TRP58       0.0015
     55  N          2.8500   13.9280   22.5680 N.am   59  ASN59      -0.1974
     56  CA         2.4310   14.1970   23.9410 C.3    59  ASN59       0.1688
     57  C          3.0040   13.1600   24.8950 C.2    59  ASN59       0.2292
     58  O          3.6670   13.5160   25.8700 O.2    59  ASN59      -0.2864
     59  CB         0.9040   14.3090   24.0620 C.3    59  ASN59       0.1181
     60  CG         0.4680   15.1240   25.2800 C.2    59  ASN59       0.2629
     61  OD1        1.2100   15.9790   25.7720 O.2    59  ASN59      -0.2716
     62  ND2       -0.7380   14.8580   25.7710 N.am   59  ASN59      -0.0877
     63  N          6.8520   13.5650   25.1920 N.3    62  LEU62      -0.1231
     64  CA         7.2710   14.6650   26.0450 C.3    62  LEU62       0.1693
     65  C          6.9490   14.4130   27.5170 C.2    62  LEU62       0.2591
     66  O          7.7040   14.8140   28.3800 O.2    62  LEU62      -0.2718
     67  CB         6.6620   15.9970   25.5800 C.3    62  LEU62       0.0284
     68  CG         7.0730   16.5060   24.1920 C.3    62  LEU62       0.0019
     69  CD1        6.4830   17.9000   23.9940 C.3    62  LEU62       0.0001
     70  CD2        8.5900   16.5180   23.9880 C.3    62  LEU62       0.0001
     71  N          5.8240   13.7590   27.7920 N.am   63  ILE63      -0.1980
     72  CA         5.4950   13.3780   29.1650 C.3    63  ILE63       0.1595
     73  C          6.5420   12.3800   29.7040 C.2    63  ILE63       0.2287
     74  O          7.0620   12.5810   30.7940 O.2    63  ILE63      -0.2864
     75  CB         4.0420   12.8470   29.3070 C.3    63  ILE63       0.0276
     76  CG1        3.0420   13.9610   29.0140 C.3    63  ILE63       0.0022
     77  CG2        3.7870   12.3180   30.7200 C.3    63  ILE63       0.0022
     78  CD1        1.6470   13.4640   28.7120 C.3    63  ILE63       0.0001
     79  N          9.6140   12.0600   28.8750 N.3    65  SER65      -0.1202
     80  CA        10.8420   12.8200   29.0940 C.3    65  SER65       0.2020
     81  C         10.8580   13.6800   30.3530 C.2    65  SER65       0.2618
     82  O         11.8200   13.6260   31.1110 O.2    65  SER65      -0.2717
     83  CB        11.1500   13.7100   27.8860 C.3    65  SER65       0.2103
     84  OG        11.4580   12.8970   26.7710 O.3    65  SER65      -0.2182
     85  N          9.8340   14.5060   30.5600 N.am   66  PHE66      -0.1975
     86  CA         9.8350   15.3350   31.7700 C.3    66  PHE66       0.1639
     87  C          9.6370   14.5130   33.0460 C.2    66  PHE66       0.2290
     88  O         10.1300   14.8830   34.1090 O.2    66  PHE66      -0.2864
     89  CB         8.9140   16.5730   31.6690 C.3    66  PHE66       0.0560
     90  CG         7.4320   16.3080   31.9150 C.ar   66  PHE66      -0.0200
     91  CD1        6.9690   15.8330   33.1380 C.ar   66  PHE66      -0.0042
     92  CD2        6.4910   16.6180   30.9320 C.ar   66  PHE66      -0.0042
     93  CE1        5.6100   15.6130   33.3530 C.ar   66  PHE66      -0.0003
     94  CE2        5.1200   16.4230   31.1470 C.ar   66  PHE66      -0.0003
     95  CZ         4.6820   15.9130   32.3420 C.ar   66  PHE66      -0.0000
     96  N         13.1080   13.1630   33.7780 N.3    69  ARG69      -0.1245
     97  CA        13.8870   14.3180   34.2030 C.3    69  ARG69       0.1563
     98  C         13.6220   14.7060   35.6710 C.2    69  ARG69       0.2260
     99  O         14.4890   15.2880   36.3180 O.2    69  ARG69      -0.2867
    100  CB        13.6010   15.5190   33.2830 C.3    69  ARG69       0.0307
    101  CG        14.4760   16.7480   33.5420 C.3    69  ARG69       0.0489
    102  CD        14.0050   17.9910   32.7660 C.3    69  ARG69       0.2205
    103  NE        13.8710   17.7570   31.3280 N.pl3  69  ARG69      -0.0865
    104  CZ        12.7820   18.0160   30.6100 C.cat  69  ARG69       0.5346
    105  NH1       11.7000   18.5510   31.1750 N.pl3  69  ARG69       0.1354
    106  NH2       12.7840   17.7450   29.3060 N.pl3  69  ARG69       0.1354
    107  N          7.7630   18.3370   39.3810 N.3    77  ILE77      -0.1245
    108  CA         8.4080   18.0790   38.1040 C.3    77  ILE77       0.1561
    109  C          9.3010   19.2410   37.6860 C.2    77  ILE77       0.2260
    110  O          9.0380   20.4030   38.0080 O.2    77  ILE77      -0.2867
    111  CB         7.3760   17.7790   36.9520 C.3    77  ILE77       0.0252
    112  CG1        6.4590   18.9760   36.7230 C.3    77  ILE77       0.0019
    113  CG2        6.5670   16.5070   37.2440 C.3    77  ILE77       0.0019
    114  CD1        5.7910   18.9940   35.3540 C.3    77  ILE77       0.0001
    115  N         10.5200   21.2720   34.4990 N.3    79  LEU79      -0.1231
    116  CA        10.1740   21.5910   33.1110 C.3    79  LEU79       0.1693
    117  C         11.4350   21.9250   32.3020 C.2    79  LEU79       0.2591
    118  O         12.5070   22.1440   32.8780 O.2    79  LEU79      -0.2718
    119  CB         9.1700   22.7530   33.0480 C.3    79  LEU79       0.0284
    120  CG         7.7790   22.5770   33.6750 C.3    79  LEU79       0.0019
    121  CD1        7.0370   23.9140   33.7060 C.3    79  LEU79       0.0001
    122  CD2        6.9420   21.5000   32.9580 C.3    79  LEU79       0.0001
    123  N         11.2970   21.9590   30.9750 N.am   80  ALA80      -0.1980
    124  CA        12.4330   22.1650   30.0700 C.3    80  ALA80       0.1597
    125  C         12.9660   23.5910   30.1210 C.2    80  ALA80       0.2287
    126  O         14.1170   23.8410   29.7700 O.2    80  ALA80      -0.2864
    127  CB        12.0570   21.8000   28.6630 C.3    80  ALA80       0.0319
    128  N         -5.4800   21.6220   38.7530 N.3    95  VAL95      -0.1245
    129  CA        -5.0400   20.4120   38.0510 C.3    95  VAL95       0.1561
    130  C         -4.3400   19.4020   38.9760 C.2    95  VAL95       0.2260
    131  O         -3.5060   18.6070   38.5350 O.2    95  VAL95      -0.2867
    132  CB        -4.1600   20.7580   36.7980 C.3    95  VAL95       0.0252
    133  CG1       -5.0250   21.3740   35.6840 C.3    95  VAL95       0.0019
    134  CG2       -2.9950   21.7060   37.1600 C.3    95  VAL95       0.0019
    135  N         -4.5930   15.1250   38.0790 N.3    98  ILE98      -0.1231
    136  CA        -3.7670   14.6420   36.9660 C.3    98  ILE98       0.1692
    137  C         -2.2630   14.7770   37.2860 C.2    98  ILE98       0.2592
    138  O         -1.4660   13.8950   36.9520 O.2    98  ILE98      -0.2718
    139  CB        -4.1810   15.2780   35.5810 C.3    98  ILE98       0.0266
    140  CG1       -3.3460   14.7000   34.4170 C.3    98  ILE98       0.0019
    141  CG2       -4.1130   16.8120   35.6260 C.3    98  ILE98       0.0020
    142  CD1       -3.4070   13.1590   34.2950 C.3    98  ILE98       0.0001
    143  N         -1.8920   15.8670   37.9590 N.am   99  PHE99      -0.1976
    144  CA        -0.5270   16.0570   38.4260 C.3    99  PHE99       0.1639
    145  C         -0.0810   14.9330   39.3680 C.2    99  PHE99       0.2290
    146  O          1.0200   14.3980   39.2040 O.2    99  PHE99      -0.2864
    147  CB        -0.3630   17.4130   39.1180 C.3    99  PHE99       0.0560
    148  CG         1.0780   17.7900   39.3800 C.ar   99  PHE99      -0.0200
    149  CD1        1.8290   18.4230   38.4010 C.ar   99  PHE99      -0.0042
    150  CD2        1.6770   17.5150   40.6070 C.ar   99  PHE99      -0.0042
    151  CE1        3.1640   18.7800   38.6310 C.ar   99  PHE99      -0.0003
    152  CE2        3.0140   17.8670   40.8480 C.ar   99  PHE99      -0.0003
    153  CZ         3.7570   18.4970   39.8560 C.ar   99  PHE99      -0.0000
    154  N          0.6950   11.6750   37.4240 N.3   102  VAL102     -0.1245
    155  CA         2.0310   11.7290   36.8310 C.3   102  VAL102      0.1561
    156  C          3.0990   11.3190   37.8460 C.2   102  VAL102      0.2260
    157  O          3.9410   10.4530   37.5530 O.2   102  VAL102     -0.2867
    158  CB         2.3440   13.1260   36.2490 C.3   102  VAL102      0.0252
    159  CG1        3.8290   13.2500   35.8620 C.3   102  VAL102      0.0019
    160  CG2        1.4460   13.4030   35.0410 C.3   102  VAL102      0.0019
    161  N         -3.9820   14.7880   29.7670 N.3   185  CYS185     -0.1235
    162  CA        -3.2410   16.0490   29.6090 C.3   185  CYS185      0.1677
    163  C         -3.6820   16.8240   28.3620 C.2   185  CYS185      0.2270
    164  O         -3.7760   18.0580   28.3910 O.2   185  CYS185     -0.2867
    165  CB        -1.7300   15.8050   29.5850 C.3   185  CYS185      0.0956
    166  SG        -1.0260   15.4890   31.2200 S.3   185  CYS185     -0.0801
    167  N         -7.0990   18.4370   28.9410 N.3   188  HIS188     -0.1226
    168  CA        -6.9090   19.7070   29.6520 C.3   188  HIS188      0.1752
    169  C         -6.4310   20.7950   28.6930 C.2   188  HIS188      0.2595
    170  O         -6.9450   21.9150   28.7200 O.2   188  HIS188     -0.2718
    171  CB        -5.9260   19.5620   30.8200 C.3   188  HIS188      0.0759
    172  CG        -6.5100   18.8990   32.0320 C.ar  188  HIS188      0.0818
    173  ND1       -7.2870   19.5740   32.9500 N.ar  188  HIS188     -0.2268
    174  CD2       -6.4220   17.6230   32.4830 C.ar  188  HIS188      0.1154
    175  CE1       -7.6520   18.7450   33.9130 C.ar  188  HIS188      0.1986
    176  NE2       -7.1430   17.5530   33.6520 N.ar  188  HIS188     -0.2212
    177  N         -5.4670   20.4460   27.8380 N.am  189  LEU189     -0.1980
    178  CA        -4.9020   21.3860   26.8700 C.3   189  LEU189      0.1596
    179  C         -5.9710   21.9740   25.9330 C.2   189  LEU189      0.2287
    180  O         -6.0240   23.1870   25.7490 O.2   189  LEU189     -0.2864
    181  CB        -3.7420   20.7530   26.0790 C.3   189  LEU189      0.0297
    182  CG        -3.0550   21.6100   25.0020 C.3   189  LEU189      0.0022
    183  CD1       -2.5460   22.9460   25.5680 C.3   189  LEU189      0.0001
    184  CD2       -1.9070   20.8480   24.3250 C.3   189  LEU189      0.0001
    185  N         -7.8670   24.5090   27.8580 N.3   192  PHE192     -0.1241
    186  CA        -7.1010   25.7560   28.0000 C.3   192  PHE192      0.1605
    187  C         -7.2230   26.5900   26.7160 C.2   192  PHE192      0.2264
    188  O         -7.3100   27.8170   26.7720 O.2   192  PHE192     -0.2867
    189  CB        -5.6120   25.5050   28.2950 C.3   192  PHE192      0.0534
    190  CG        -5.3370   24.6250   29.4980 C.ar  192  PHE192     -0.0203
    191  CD1       -4.2310   23.7750   29.4970 C.ar  192  PHE192     -0.0042
    192  CD2       -6.1470   24.6640   30.6340 C.ar  192  PHE192     -0.0042
    193  CE1       -3.9460   22.9480   30.5980 C.ar  192  PHE192     -0.0003
    194  CE2       -5.8670   23.8500   31.7390 C.ar  192  PHE192     -0.0003
    195  CZ        -4.7620   22.9870   31.7170 C.ar  192  PHE192     -0.0000
    196  N          2.9700   24.2230   19.5160 N.3   204  LEU204     -0.1245
    197  CA         1.9360   23.5870   20.3360 C.3   204  LEU204      0.1561
    198  C          0.5480   23.7620   19.6880 C.2   204  LEU204      0.2260
    199  O         -0.1910   22.7860   19.5030 O.2   204  LEU204     -0.2867
    200  CB         1.9830   24.1260   21.7740 C.3   204  LEU204      0.0270
    201  CG         1.1710   23.4380   22.8810 C.3   204  LEU204      0.0019
    202  CD1        1.5430   21.9640   23.0450 C.3   204  LEU204      0.0001
    203  CD2        1.3550   24.1810   24.2040 C.3   204  LEU204      0.0001
@<TRIPOS>BOND
     1    47    49   ar
     2    47    46   ar
     3   199   198    2
     4   196   197    1
     5   198   197    1
     6    49    50   ar
     7    45    46    1
     8    45    42    1
     9    41    42    1
    10    46    48   ar
    11   197   200    1
    12    42    43    1
    13    50    48   ar
    14    50    52   ar
    15    48    51   ar
    16    52    54   ar
    17   200   201    1
    18    35    34    2
    19    43    55   am
    20    43    44    2
    21    51    53   ar
    22    34    33    1
    23    55    56    1
    24    54    53   ar
    25   201   202    1
    26   201   203    1
    27    33    32    1
    28    33    36    1
    29    30    29    2
    30    56    59    1
    31    56    57    1
    32    70    68    1
    33    69    68    1
    34    59    60    1
    35    68    67    1
    36   184   182    1
    37    29    28    1
    38    36    37    1
    39    57    58    2
    40   182   183    1
    41   182   181    1
    42    63    64    1
    43    60    62   am
    44    60    61    2
    45    67    64    1
    46    39    38    2
    47   180   179    2
    48    40    38   am
    49    38    37    1
    50   179   178    1
    51    28    31    1
    52    28    27    1
    53    64    65    1
    54   181   178    1
    55    19    18    2
    56    25    24    2
    57   187   188    2
    58   187   186    1
    59    84    83    1
    60   178   177    1
    61    27    24   am
    62    24    23    1
    63    18    17    1
    64    65    71   am
    65    65    66    2
    66    20    17    1
    67    20    21    1
    68    71    72    1
    69   177   169   am
    70   185   186    1
    71    83    80    1
    72    17    16    1
    73   186   189    1
    74    22    23    1
    75    23    26    1
    76   189   190    1
    77   163   164    2
    78   163   162    1
    79   127   124    1
    80   169   170    2
    81   169   168    1
    82    78    76    1
    83    79    80    1
    84   167   168    1
    85    76    75    1
    86    80    81    1
    87    11    10    2
    88    72    75    1
    89    72    73    1
    90   106   104    1
    91    75    77    1
    92    16    10   am
    93   191   190   ar
    94   191   193   ar
    95   190   192   ar
    96   165   162    1
    97   165   166    1
    98   162   161    1
    99   168   171    1
   100    73    74    2
   101   126   125    2
   102    10     9    1
   103   124   125    1
   104   124   123    1
   105    81    85   am
   106    81    82    2
   107    85    86    1
   108   193   195   ar
   109   104   105    1
   110   104   103    2
   111   192   194   ar
   112   171   172    1
   113    92    94   ar
   114    92    90   ar
   115   123   117   am
   116     4     3    2
   117    94    95   ar
   118    14    12    1
   119   103   102    1
   120     9     8    1
   121     9    12    1
   122    89    86    1
   123    89    90    1
   124   195   194   ar
   125     6     5    1
   126    86    87    1
   127    90    91   ar
   128   172   174   ar
   129   172   173   ar
   130    12    13    1
   131     3     2    1
   132   117   118    2
   133   117   116    1
   134    95    93   ar
   135   174   176   ar
   136   102   101    1
   137   173   175   ar
   138   122   120    1
   139    87    88    2
   140   119   116    1
   141   119   120    1
   142   116   115    1
   143    91    93   ar
   144     5     2    1
   145     5     7    1
   146     2     1    1
   147   100   101    1
   148   100    97    1
   149    13    15    1
   150   176   175   ar
   151   120   121    1
   152    96    97    1
   153    97    98    1
   154   142   140    1
   155   140   139    1
   156   160   158    1
   157   114   112    1
   158   139   141    1
   159   139   136    1
   160    98    99    2
   161   133   132    1
   162   159   158    1
   163   158   155    1
   164   112   111    1
   165   132   134    1
   166   132   129    1
   167   155   154    1
   168   155   156    1
   169   138   137    2
   170   111   113    1
   171   111   108    1
   172   136   137    1
   173   136   135    1
   174   137   143   am
   175   157   156    2
   176   109   110    2
   177   109   108    1
   178   143   144    1
   179   129   128    1
   180   129   130    1
   181   108   107    1
   182   149   151   ar
   183   149   148   ar
   184   144   147    1
   185   144   145    1
   186   131   130    2
   187   151   153   ar
   188   147   148    1
   189   146   145    2
   190   148   150   ar
   191   153   152   ar
   192   150   152   ar
