@<TRIPOS>MOLECULE
tmp/2p20A00.pdb
 180 176 0 0 0
SMALL
GASTEIGER

@<TRIPOS>ATOM
      1  N          1.4990   32.5980   30.4730 N.3   260  THR260     -0.1218
      2  CA         0.2040   32.0170   30.1920 C.3   260  THR260      0.1862
      3  C         -0.5750   31.9200   31.4940 C.2   260  THR260      0.2287
      4  O         -0.0360   31.4900   32.5220 O.2   260  THR260     -0.2866
      5  CB         0.3520   30.6080   29.5790 C.3   260  THR260      0.1770
      6  OG1        1.3090   30.6500   28.5120 O.3   260  THR260     -0.2211
      7  CG2       -0.9890   30.1050   29.0430 C.3   260  THR260      0.0375
      8  N          1.2640   36.1640   21.2710 N.3   305  TRP305     -0.1227
      9  CA         0.5840   34.9070   21.5780 C.3   305  TRP305      0.1737
     10  C          1.2650   33.7440   20.8570 C.2   305  TRP305      0.2595
     11  O          1.9180   33.9320   19.8340 O.2   305  TRP305     -0.2718
     12  CB        -0.9030   34.9680   21.1980 C.3   305  TRP305      0.0564
     13  CG        -1.6670   36.1640   21.8100 C.ar  305  TRP305      0.0003
     14  CD1       -2.4310   37.0810   21.1280 C.ar  305  TRP305      0.0946
     15  CD2       -1.7140   36.5650   23.1980 C.ar  305  TRP305      0.0152
     16  NE1       -2.9430   38.0060   22.0000 N.ar  305  TRP305     -0.2442
     17  CE2       -2.5130   37.7220   23.2690 C.ar  305  TRP305      0.0810
     18  CE3       -1.1490   36.0570   24.3850 C.ar  305  TRP305      0.0012
     19  CZ2       -2.7910   38.3730   24.4830 C.ar  305  TRP305      0.0191
     20  CZ3       -1.4050   36.7100   25.5860 C.ar  305  TRP305      0.0001
     21  CH2       -2.2330   37.8510   25.6310 C.ar  305  TRP305      0.0015
     22  N          1.1060   32.5430   21.3950 N.am  306  VAL306     -0.1966
     23  CA         1.7510   31.3510   20.8310 C.3   306  VAL306      0.1727
     24  C          1.3640   31.1150   19.3510 C.2   306  VAL306      0.2616
     25  O          2.1770   30.6520   18.5650 O.2   306  VAL306     -0.2715
     26  CB         1.5060   30.0860   21.7470 C.3   306  VAL306      0.0290
     27  CG1        0.0350   29.6440   21.6940 C.3   306  VAL306      0.0023
     28  CG2        2.4920   28.9450   21.4010 C.3   306  VAL306      0.0023
     29  N          0.1380   31.4620   18.9640 N.am  307  THR307     -0.1951
     30  CA        -0.2610   31.3000   17.5590 C.3   307  THR307      0.1897
     31  C          0.6240   32.1810   16.6550 C.2   307  THR307      0.2313
     32  O          0.9820   31.7820   15.5370 O.2   307  THR307     -0.2863
     33  CB        -1.7600   31.6080   17.3290 C.3   307  THR307      0.1794
     34  OG1       -2.5520   30.8640   18.2540 O.3   307  THR307     -0.2208
     35  CG2       -2.1800   31.2120   15.9410 C.3   307  THR307      0.0378
     36  N         -8.9150   29.2880   15.0030 N.3   382  VAL382     -0.1231
     37  CA        -8.1240   28.9550   16.1900 C.3   382  VAL382      0.1692
     38  C         -8.5410   29.7180   17.4460 C.2   382  VAL382      0.2593
     39  O         -8.9560   30.8690   17.3710 O.2   382  VAL382     -0.2718
     40  CB        -6.5860   29.1800   15.9480 C.3   382  VAL382      0.0266
     41  CG1       -6.2260   30.6710   15.6670 C.3   382  VAL382      0.0020
     42  CG2       -5.7580   28.6380   17.1230 C.3   382  VAL382      0.0020
     43  N         -8.4270   29.0560   18.5940 N.am  383  GLY383     -0.1942
     44  CA        -8.2910   29.7400   19.8730 C.3   383  GLY383      0.2014
     45  C         -9.5010   29.6680   20.7690 C.2   383  GLY383      0.2639
     46  O         -9.4380   30.0260   21.9480 O.2   383  GLY383     -0.2714
     47  N        -10.6160   29.2420   20.2050 N.am  384  GLU384     -0.1963
     48  CA       -11.8500   29.1830   20.9600 C.3   384  GLU384      0.1718
     49  C        -12.8390   28.3380   20.1980 C.2   384  GLU384      0.2458
     50  O        -12.7060   28.1710   18.9820 O.2   384  GLU384     -0.2730
     51  CB       -12.4190   30.5990   21.2380 C.3   384  GLU384      0.0428
     52  CG       -12.4600   31.4770   20.0250 C.3   384  GLU384      0.1163
     53  CD       -12.8720   32.9210   20.2840 C.2   384  GLU384      0.3649
     54  OE1      -13.9070   33.1440   20.9680 O.co2 384  GLU384     -0.2457
     55  OE2      -12.1850   33.8190   19.7230 O.co2 384  GLU384     -0.2457
     56  N        -13.8510   27.8020   20.9000 N.am  385  PRO385     -0.2727
     57  CA       -14.8090   27.0080   20.1500 C.3   385  PRO385      0.1402
     58  C        -15.4560   27.9330   19.1530 C.2   385  PRO385      0.2269
     59  O        -15.6380   29.1160   19.4420 O.2   385  PRO385     -0.2865
     60  CB       -15.8370   26.5890   21.2110 C.3   385  PRO385      0.0296
     61  CG       -15.1400   26.7130   22.4810 C.3   385  PRO385      0.0237
     62  CD       -14.1980   27.8700   22.3250 C.3   385  PRO385      0.0939
     63  N        -10.2080   23.8650   11.7840 N.3   407  ASP407     -0.1225
     64  CA       -10.4220   24.3170   13.1480 C.3   407  ASP407      0.1805
     65  C         -9.3670   23.6180   13.9860 C.2   407  ASP407      0.2598
     66  O         -9.4740   22.4320   14.2620 O.2   407  ASP407     -0.2718
     67  CB       -11.8350   23.9250   13.5930 C.3   407  ASP407      0.1424
     68  CG       -12.1600   24.3190   15.0510 C.2   407  ASP407      0.3668
     69  OD1      -11.3920   25.0500   15.7490 O.co2 407  ASP407     -0.2456
     70  OD2      -13.2430   23.8780   15.4870 O.co2 407  ASP407     -0.2456
     71  N         -8.3300   24.3560   14.3650 N.am  408  THR408     -0.1939
     72  CA        -7.1780   23.7690   15.0260 C.3   408  THR408      0.2028
     73  C         -7.2610   23.9440   16.5470 C.2   408  THR408      0.2642
     74  O         -7.0970   25.0570   17.0530 O.2   408  THR408     -0.2714
     75  CB        -5.8730   24.4200   14.5240 C.3   408  THR408      0.1808
     76  OG1       -5.9410   25.8370   14.7580 O.3   408  THR408     -0.2208
     77  CG2       -5.6440   24.1500   13.0250 C.3   408  THR408      0.0379
     78  N         -7.5040   22.8470   17.2720 N.am  409  TRP409     -0.1959
     79  CA        -7.3640   22.8710   18.7260 C.3   409  TRP409      0.1771
     80  C         -5.9260   22.5900   19.1680 C.2   409  TRP409      0.2620
     81  O         -5.2880   21.6350   18.7110 O.2   409  TRP409     -0.2715
     82  CB        -8.3430   21.9300   19.4410 C.3   409  TRP409      0.0590
     83  CG        -8.1310   21.9690   20.9310 C.ar  409  TRP409      0.0006
     84  CD1       -8.6260   22.8980   21.8210 C.ar  409  TRP409      0.0946
     85  CD2       -7.3160   21.0790   21.6950 C.ar  409  TRP409      0.0152
     86  NE1       -8.1690   22.6270   23.0960 N.ar  409  TRP409     -0.2442
     87  CE2       -7.3630   21.5180   23.0440 C.ar  409  TRP409      0.0810
     88  CE3       -6.5450   19.9520   21.3720 C.ar  409  TRP409      0.0012
     89  CZ2       -6.6840   20.8520   24.0730 C.ar  409  TRP409      0.0191
     90  CZ3       -5.8670   19.2910   22.3990 C.ar  409  TRP409      0.0001
     91  CH2       -5.9410   19.7510   23.7330 C.ar  409  TRP409      0.0015
     92  N         -5.4400   23.4410   20.0820 N.am  410  TRP410     -0.1960
     93  CA        -4.1440   23.2880   20.7380 C.3   410  TRP410      0.1771
     94  C         -4.0230   24.3680   21.8290 C.2   410  TRP410      0.2620
     95  O         -5.0160   25.0190   22.1720 O.2   410  TRP410     -0.2715
     96  CB        -2.9820   23.3240   19.7250 C.3   410  TRP410      0.0590
     97  CG        -2.8620   24.5830   18.8980 C.ar  410  TRP410      0.0006
     98  CD1       -3.7510   25.0490   17.9700 C.ar  410  TRP410      0.0946
     99  CD2       -1.7730   25.5210   18.9150 C.ar  410  TRP410      0.0152
    100  NE1       -3.2910   26.2240   17.4100 N.ar  410  TRP410     -0.2442
    101  CE2       -2.0820   26.5400   17.9730 C.ar  410  TRP410      0.0810
    102  CE3       -0.5730   25.6170   19.6540 C.ar  410  TRP410      0.0012
    103  CZ2       -1.2370   27.6470   17.7560 C.ar  410  TRP410      0.0191
    104  CZ3        0.2750   26.7030   19.4260 C.ar  410  TRP410      0.0001
    105  CH2       -0.0620   27.7060   18.4910 C.ar  410  TRP410      0.0015
    106  N         -2.8160   24.5500   22.3760 N.am  411  GLN411     -0.1963
    107  CA        -2.5950   25.4180   23.5400 C.3   411  GLN411      0.1733
    108  C         -1.1430   25.8520   23.5770 C.2   411  GLN411      0.2617
    109  O         -0.3050   25.2020   22.9770 O.2   411  GLN411     -0.2715
    110  CB        -2.8330   24.6490   24.8440 C.3   411  GLN411      0.0408
    111  CG        -4.0820   23.8150   24.9260 C.3   411  GLN411      0.0908
    112  CD        -4.1360   23.0760   26.2460 C.2   411  GLN411      0.2608
    113  OE1       -3.3460   22.1580   26.4810 O.2   411  GLN411     -0.2717
    114  NE2       -5.0410   23.5010   27.1300 N.am  411  GLN411     -0.0878
    115  N         -0.8330   26.8950   24.3480 N.am  412  THR412     -0.1951
    116  CA         0.5470   27.3390   24.5210 C.3   412  THR412      0.1897
    117  C          1.4490   26.1420   24.8810 C.2   412  THR412      0.2313
    118  O          2.5570   25.9900   24.3420 O.2   412  THR412     -0.2863
    119  CB         0.6320   28.4250   25.6290 C.3   412  THR412      0.1794
    120  OG1       -0.3490   29.4350   25.3720 O.3   412  THR412     -0.2208
    121  CG2        2.0110   29.0690   25.6590 C.3   412  THR412      0.0378
    122  N        -13.2230   20.0740   15.7510 N.3   433  ALA433     -0.1245
    123  CA       -11.8100   20.1010   15.4130 C.3   433  ALA433      0.1562
    124  C        -11.4070   18.7900   14.7360 C.2   433  ALA433      0.2260
    125  O        -10.3070   18.6900   14.1950 O.2   433  ALA433     -0.2867
    126  CB       -10.9400   20.3660   16.6410 C.3   433  ALA433      0.0290
    127  N         -9.3090   21.3740   29.3910 N.3   496  ASP496     -0.1239
    128  CA       -10.4860   21.4340   28.5170 C.3   496  ASP496      0.1674
    129  C        -11.3980   20.2410   28.7070 C.2   496  ASP496      0.2266
    130  O        -10.9470   19.1550   29.0710 O.2   496  ASP496     -0.2867
    131  CB       -10.0600   21.4590   27.0420 C.3   496  ASP496      0.1410
    132  CG        -9.5990   22.8260   26.5980 C.2   496  ASP496      0.3668
    133  OD1      -10.2470   23.8450   26.9620 O.co2 496  ASP496     -0.2456
    134  OD2       -8.5680   22.8790   25.9040 O.co2 496  ASP496     -0.2456
    135  N        -14.5710   20.2500   21.0480 N.3   508  ILE508     -0.1245
    136  CA       -14.0030   20.8530   22.2670 C.3   508  ILE508      0.1561
    137  C        -14.9540   21.9030   22.8400 C.2   508  ILE508      0.2260
    138  O        -15.2860   22.8860   22.1670 O.2   508  ILE508     -0.2867
    139  CB       -12.5900   21.4760   22.0330 C.3   508  ILE508      0.0252
    140  CG1      -11.5260   20.4000   21.7980 C.3   508  ILE508      0.0019
    141  CG2      -12.1560   22.3250   23.2460 C.3   508  ILE508      0.0019
    142  CD1      -11.5110   19.8210   20.4080 C.3   508  ILE508      0.0001
    143  N        -14.4980   23.6920   25.8130 N.3   510  GLY510     -0.1210
    144  CA       -13.8910   24.7680   26.5740 C.3   510  GLY510      0.1956
    145  C        -13.3210   24.3360   27.9120 C.2   510  GLY510      0.2611
    146  O        -13.3430   23.1540   28.2740 O.2   510  GLY510     -0.2717
    147  N        -12.8090   25.3080   28.6540 N.am  511  ARG511     -0.1979
    148  CA       -12.1240   25.0230   29.8980 C.3   511  ARG511      0.1597
    149  C        -13.0840   24.4270   30.9260 C.2   511  ARG511      0.2287
    150  O        -14.2490   24.8470   31.0210 O.2   511  ARG511     -0.2864
    151  CB       -11.4710   26.2870   30.4440 C.3   511  ARG511      0.0334
    152  CG       -10.5060   26.9970   29.5020 C.3   511  ARG511      0.0492
    153  CD        -9.2580   26.1610   29.1610 C.3   511  ARG511      0.2205
    154  NE        -8.4020   25.8950   30.3160 N.pl3 511  ARG511     -0.0865
    155  CZ        -7.0830   25.7480   30.2470 C.cat 511  ARG511      0.5346
    156  NH1       -6.4670   25.8720   29.0760 N.pl3 511  ARG511      0.1354
    157  NH2       -6.3760   25.4990   31.3470 N.pl3 511  ARG511      0.1354
    158  N        -12.1270   32.4750   28.5900 N.3   517  ASN517     -0.1240
    159  CA       -11.7740   32.7450   27.2160 C.3   517  ASN517      0.1653
    160  C        -12.5520   33.9790   26.7490 C.2   517  ASN517      0.2266
    161  O        -13.7420   33.9070   26.4250 O.2   517  ASN517     -0.2867
    162  CB       -12.0160   31.5150   26.3350 C.3   517  ASN517      0.1155
    163  CG       -11.3370   31.6210   24.9450 C.2   517  ASN517      0.2627
    164  OD1      -10.8990   30.6170   24.3630 O.2   517  ASN517     -0.2716
    165  ND2      -11.2710   32.8370   24.4110 N.am  517  ASN517     -0.0877
    166  N        -10.9570   35.5430   22.8380 N.3   520  GLY520     -0.1225
    167  CA        -9.8230   34.7230   22.4490 C.3   520  GLY520      0.1811
    168  C         -8.6500   34.8160   23.3960 C.2   520  GLY520      0.2280
    169  O         -7.5790   34.2780   23.1140 O.2   520  GLY520     -0.2866
    170  N         -6.9240   33.9310   26.9630 N.3   522  ARG522     -0.1245
    171  CA        -6.9260   33.0330   28.0880 C.3   522  ARG522      0.1563
    172  C         -6.5570   33.8390   29.3370 C.2   522  ARG522      0.2260
    173  O         -5.4740   34.4400   29.4010 O.2   522  ARG522     -0.2867
    174  CB        -5.9270   31.9110   27.8190 C.3   522  ARG522      0.0307
    175  CG        -5.6970   30.9210   28.9500 C.3   522  ARG522      0.0489
    176  CD        -4.7620   29.8300   28.4550 C.3   522  ARG522      0.2205
    177  NE        -4.1730   29.0570   29.5400 N.pl3 522  ARG522     -0.0865
    178  CZ        -3.4200   27.9690   29.3630 C.cat 522  ARG522      0.5346
    179  NH1       -3.1610   27.5020   28.1410 N.pl3 522  ARG522      0.1354
    180  NH2       -2.9210   27.3430   30.4130 N.pl3 522  ARG522      0.1354
@<TRIPOS>BOND
     1    63    64    1
     2    77    75    1
     3    64    67    1
     4    64    65    1
     5    67    68    1
     6    65    66    2
     7    65    71   am
     8   125   124    2
     9    71    72    1
    10    75    76    1
    11    75    72    1
    12   124   123    1
    13    36    37    1
    14    72    73    1
    15    68    70   ar
    16    68    69   ar
    17   123   122    1
    18   123   126    1
    19    32    31    2
    20    41    40    1
    21    35    33    1
    22    40    37    1
    23    40    42    1
    24    37    38    1
    25    73    74    2
    26    73    78   am
    27    31    30    1
    28    78    79    1
    29    33    30    1
    30    33    34    1
    31    39    38    2
    32   100    98   ar
    33   100   101   ar
    34    38    43   am
    35    30    29    1
    36   103   101   ar
    37   103   105   ar
    38    98    97   ar
    39   101    99   ar
    40   105   104   ar
    41    25    24    2
    42    43    44    1
    43    81    80    2
    44    79    80    1
    45    79    82    1
    46    97    99   ar
    47    97    96    1
    48    99   102   ar
    49    29    24   am
    50    50    49    2
    51    58    59    2
    52    58    57    1
    53    80    92   am
    54    24    23    1
    55   104   102   ar
    56    82    83    1
    57    55    53   ar
    58    96    93    1
    59    11    10    2
    60    44    45    1
    61    52    53    1
    62    52    51    1
    63    92    93    1
    64    57    56    1
    65    57    60    1
    66    49    56   am
    67    49    48    1
    68    47    45   am
    69    47    48    1
    70    53    54   ar
    71   142   140    1
    72    93    94    1
    73    45    46    2
    74    23    22    1
    75    23    26    1
    76    10    22   am
    77    10     9    1
    78    56    62    1
    79    83    85   ar
    80    83    84   ar
    81    48    51    1
    82   135   136    1
    83    14    13   ar
    84    14    16   ar
    85    12     9    1
    86    12    13    1
    87    60    61    1
    88     8     9    1
    89    88    85   ar
    90    88    90   ar
    91    28    26    1
    92    27    26    1
    93    85    87   ar
    94   140   139    1
    95    13    15   ar
    96    84    86   ar
    97    94    95    2
    98    94   106   am
    99    16    17   ar
   100   139   136    1
   101   139   141    1
   102   138   137    2
   103   136   137    1
   104    62    61    1
   105   106   107    1
   106    90    91   ar
   107   167   166    1
   108   167   168    1
   109   109   108    2
   110    87    86   ar
   111    87    89   ar
   112   169   168    2
   113    15    17   ar
   114    15    18   ar
   115    17    19   ar
   116   107   108    1
   117   107   110    1
   118   108   115   am
   119    91    89   ar
   120   118   117    2
   121   115   116    1
   122   164   163    2
   123    18    20   ar
   124   165   163   am
   125    19    21   ar
   126   116   117    1
   127   116   119    1
   128   110   111    1
   129   111   112    1
   130   163   162    1
   131   120   119    1
   132    20    21   ar
   133   119   121    1
   134   143   144    1
   135   134   132   ar
   136   112   113    2
   137   112   114   am
   138   162   159    1
   139   161   160    2
   140   144   145    1
   141   132   133   ar
   142   132   131    1
   143   160   159    1
   144   170   171    1
   145   131   128    1
   146   159   158    1
   147   174   171    1
   148   174   175    1
   149   145   146    2
   150   145   147   am
   151   171   172    1
   152   179   178    1
   153   176   175    1
   154   176   177    1
   155     6     5    1
   156   128   129    1
   157   128   127    1
   158   147   148    1
   159   129   130    2
   160     7     5    1
   161   156   155    1
   162   153   152    1
   163   153   154    1
   164   172   173    2
   165   178   177    2
   166   178   180    1
   167   152   151    1
   168     5     2    1
   169   148   151    1
   170   148   149    1
   171     2     1    1
   172     2     3    1
   173   155   154    2
   174   155   157    1
   175   149   150    2
   176     3     4    2
