@<TRIPOS>MOLECULE
tmp/2p2fB01.pdb
 186 182 0 0 0
SMALL
GASTEIGER

@<TRIPOS>ATOM
      1  N        -38.5910   65.6930   10.7130 N.3   260  THR260     -0.1218
      2  CA       -38.5930   65.2840   12.1070 C.3   260  THR260      0.1862
      3  C        -39.4980   64.0790   12.2160 C.2   260  THR260      0.2287
      4  O        -40.5860   64.0670   11.6560 O.2   260  THR260     -0.2866
      5  CB       -39.1160   66.4260   12.9980 C.3   260  THR260      0.1770
      6  OG1      -38.4100   67.6230   12.6540 O.3   260  THR260     -0.2211
      7  CG2      -38.9080   66.1280   14.5050 C.3   260  THR260      0.0375
      8  N        -29.3850   68.7480   13.0070 N.3   305  TRP305     -0.1227
      9  CA       -30.5220   68.7790   13.9170 C.3   305  TRP305      0.1737
     10  C        -30.8140   70.2130   14.3250 C.2   305  TRP305      0.2595
     11  O        -29.9710   71.1130   14.1790 O.2   305  TRP305     -0.2718
     12  CB       -30.2320   67.9530   15.1530 C.3   305  TRP305      0.0564
     13  CG       -29.7240   66.6070   14.8100 C.ar  305  TRP305      0.0003
     14  CD1      -28.4940   66.1000   15.1040 C.ar  305  TRP305      0.0946
     15  CD2      -30.4050   65.5900   14.0640 C.ar  305  TRP305      0.0152
     16  NE1      -28.3660   64.8280   14.5980 N.ar  305  TRP305     -0.2442
     17  CE2      -29.5220   64.4920   13.9520 C.ar  305  TRP305      0.0810
     18  CE3      -31.6830   65.4910   13.4940 C.ar  305  TRP305      0.0012
     19  CZ2      -29.8740   63.3070   13.3140 C.ar  305  TRP305      0.0191
     20  CZ3      -32.0300   64.3110   12.8370 C.ar  305  TRP305      0.0001
     21  CH2      -31.1200   63.2360   12.7500 C.ar  305  TRP305      0.0015
     22  N        -32.0100   70.4110   14.8620 N.am  306  VAL306     -0.1966
     23  CA       -32.4420   71.7180   15.3220 C.3   306  VAL306      0.1727
     24  C        -31.4840   72.3530   16.3490 C.2   306  VAL306      0.2616
     25  O        -31.2710   73.5620   16.3130 O.2   306  VAL306     -0.2715
     26  CB       -33.8890   71.6540   15.8470 C.3   306  VAL306      0.0290
     27  CG1      -33.9710   70.8200   17.1560 C.3   306  VAL306      0.0023
     28  CG2      -34.4770   73.0630   15.9870 C.3   306  VAL306      0.0023
     29  N        -30.8910   71.5450   17.2310 N.am  307  THR307     -0.1951
     30  CA       -29.9850   72.0820   18.2340 C.3   307  THR307      0.1897
     31  C        -28.8600   72.7730   17.5170 C.2   307  THR307      0.2313
     32  O        -28.3530   73.8140   17.9780 O.2   307  THR307     -0.2863
     33  CB       -29.3940   71.0010   19.1240 C.3   307  THR307      0.1794
     34  OG1      -30.4600   70.2770   19.7560 O.3   307  THR307     -0.2208
     35  CG2      -28.4660   71.6290   20.1950 C.3   307  THR307      0.0378
     36  N        -26.8140   70.6710   28.9430 N.3   381  SER381     -0.1202
     37  CA       -27.1980   69.3160   28.5660 C.3   381  SER381      0.2020
     38  C        -28.4790   69.4220   27.7430 C.2   381  SER381      0.2619
     39  O        -29.3770   70.2310   28.0730 O.2   381  SER381     -0.2717
     40  CB       -27.4610   68.4750   29.8130 C.3   381  SER381      0.2103
     41  OG       -27.6540   67.1310   29.4480 O.3   381  SER381     -0.2182
     42  N        -28.5890   68.6090   26.6950 N.am  382  VAL382     -0.1965
     43  CA       -29.7520   68.6990   25.8150 C.3   382  VAL382      0.1727
     44  C        -30.1220   67.3990   25.1400 C.2   382  VAL382      0.2617
     45  O        -29.2610   66.5790   24.8630 O.2   382  VAL382     -0.2715
     46  CB       -29.5270   69.7370   24.7040 C.3   382  VAL382      0.0290
     47  CG1      -28.2550   69.4110   23.9160 C.3   382  VAL382      0.0023
     48  CG2      -30.7710   69.8400   23.7780 C.3   382  VAL382      0.0023
     49  N        -31.4160   67.2260   24.8750 N.am  383  GLY383     -0.1940
     50  CA       -31.8470   66.2910   23.8730 C.3   383  GLY383      0.2014
     51  C        -32.4720   65.0330   24.3640 C.2   383  GLY383      0.2639
     52  O        -33.0330   64.2670   23.5600 O.2   383  GLY383     -0.2714
     53  N        -32.3750   64.8010   25.6700 N.am  384  GLU384     -0.1963
     54  CA       -32.9130   63.5870   26.2950 C.3   384  GLU384      0.1718
     55  C        -32.8030   63.7490   27.8070 C.2   384  GLU384      0.2458
     56  O        -32.0840   64.6450   28.2730 O.2   384  GLU384     -0.2730
     57  CB       -32.1500   62.3400   25.8360 C.3   384  GLU384      0.0428
     58  CG       -30.6880   62.6100   25.7270 C.3   384  GLU384      0.1163
     59  CD       -29.8640   61.4280   25.3150 C.2   384  GLU384      0.3649
     60  OE1      -30.1760   60.2930   25.7490 O.co2 384  GLU384     -0.2457
     61  OE2      -28.8680   61.6790   24.5910 O.co2 384  GLU384     -0.2457
     62  N        -33.5140   62.8900   28.5760 N.am  385  PRO385     -0.2727
     63  CA       -33.4360   63.0320   30.0290 C.3   385  PRO385      0.1402
     64  C        -32.0140   62.7560   30.4480 C.2   385  PRO385      0.2269
     65  O        -31.3370   61.9370   29.8290 O.2   385  PRO385     -0.2865
     66  CB       -34.3510   61.9270   30.5660 C.3   385  PRO385      0.0296
     67  CG       -35.1410   61.4410   29.3760 C.3   385  PRO385      0.0237
     68  CD       -34.3680   61.7570   28.1550 C.3   385  PRO385      0.0939
     69  N        -29.9930   72.1300   31.8100 N.3   407  ASP407     -0.1225
     70  CA       -30.6760   71.0120   31.2010 C.3   407  ASP407      0.1805
     71  C        -31.8660   71.6410   30.4970 C.2   407  ASP407      0.2598
     72  O        -32.8110   72.0750   31.1430 O.2   407  ASP407     -0.2718
     73  CB       -31.1170   70.0560   32.3040 C.3   407  ASP407      0.1424
     74  CG       -31.9240   68.9140   31.8040 C.2   407  ASP407      0.3668
     75  OD1      -32.2150   68.8330   30.5950 O.co2 407  ASP407     -0.2456
     76  OD2      -32.2730   68.0710   32.6530 O.co2 407  ASP407     -0.2456
     77  N        -31.7980   71.7110   29.1730 N.am  408  THR408     -0.1939
     78  CA       -32.7680   72.4550   28.4100 C.3   408  THR408      0.2028
     79  C        -33.7220   71.5250   27.7030 C.2   408  THR408      0.2642
     80  O        -33.3150   70.7850   26.7960 O.2   408  THR408     -0.2714
     81  CB       -32.0800   73.3160   27.3400 C.3   408  THR408      0.1808
     82  OG1      -31.3680   72.4590   26.4330 O.3   408  THR408     -0.2208
     83  CG2      -31.1140   74.3100   27.9660 C.3   408  THR408      0.0379
     84  N        -34.9940   71.5600   28.1150 N.am  409  TRP409     -0.1959
     85  CA       -36.0290   70.7900   27.4330 C.3   409  TRP409      0.1771
     86  C        -36.7080   71.6340   26.3580 C.2   409  TRP409      0.2620
     87  O        -37.1390   72.7700   26.6210 O.2   409  TRP409     -0.2715
     88  CB       -37.0880   70.2570   28.3980 C.3   409  TRP409      0.0590
     89  CG       -38.1650   69.5880   27.6410 C.ar  409  TRP409      0.0006
     90  CD1      -38.1580   68.3060   27.1910 C.ar  409  TRP409      0.0946
     91  CD2      -39.3650   70.1780   27.1480 C.ar  409  TRP409      0.0152
     92  NE1      -39.2940   68.0350   26.4870 N.ar  409  TRP409     -0.2442
     93  CE2      -40.0570   69.1680   26.4300 C.ar  409  TRP409      0.0810
     94  CE3      -39.9420   71.4510   27.2620 C.ar  409  TRP409      0.0012
     95  CZ2      -41.2940   69.3800   25.8290 C.ar  409  TRP409      0.0191
     96  CZ3      -41.1840   71.6680   26.6550 C.ar  409  TRP409      0.0001
     97  CH2      -41.8430   70.6260   25.9400 C.ar  409  TRP409      0.0015
     98  N        -36.8140   71.0710   25.1570 N.am  410  TRP410     -0.1960
     99  CA       -37.4680   71.7380   24.0330 C.3   410  TRP410      0.1771
    100  C        -37.4830   70.7580   22.8900 C.2   410  TRP410      0.2620
    101  O        -37.0670   69.6290   23.0740 O.2   410  TRP410     -0.2715
    102  CB       -36.7530   73.0340   23.6530 C.3   410  TRP410      0.0590
    103  CG       -35.3640   72.8750   23.1620 C.ar  410  TRP410      0.0006
    104  CD1      -34.2980   72.4290   23.8710 C.ar  410  TRP410      0.0946
    105  CD2      -34.8670   73.2060   21.8580 C.ar  410  TRP410      0.0152
    106  NE1      -33.1590   72.4460   23.0970 N.ar  410  TRP410     -0.2442
    107  CE2      -33.4800   72.9180   21.8520 C.ar  410  TRP410      0.0810
    108  CE3      -35.4550   73.7200   20.6930 C.ar  410  TRP410      0.0012
    109  CZ2      -32.6650   73.1090   20.7060 C.ar  410  TRP410      0.0191
    110  CZ3      -34.6350   73.9260   19.5500 C.ar  410  TRP410      0.0001
    111  CH2      -33.2610   73.6100   19.5690 C.ar  410  TRP410      0.0015
    112  N        -37.9500   71.1690   21.7120 N.am  411  GLN411     -0.1963
    113  CA       -38.1260   70.2330   20.5920 C.3   411  GLN411      0.1733
    114  C        -37.9700   70.9990   19.3040 C.2   411  GLN411      0.2617
    115  O        -38.0740   72.2230   19.3010 O.2   411  GLN411     -0.2715
    116  CB       -39.5340   69.6300   20.5790 C.3   411  GLN411      0.0408
    117  CG       -40.2470   69.5640   21.8900 C.3   411  GLN411      0.0908
    118  CD       -41.6140   68.9520   21.7290 C.2   411  GLN411      0.2608
    119  OE1      -42.5860   69.6640   21.4790 O.2   411  GLN411     -0.2717
    120  NE2      -41.7010   67.6160   21.8440 N.am  411  GLN411     -0.0878
    121  N        -37.7660   70.2740   18.2100 N.am  412  THR412     -0.1951
    122  CA       -37.6730   70.8830   16.8910 C.3   412  THR412      0.1897
    123  C        -38.8410   71.8360   16.6670 C.2   412  THR412      0.2313
    124  O        -38.6570   72.9380   16.1220 O.2   412  THR412     -0.2863
    125  CB       -37.6890   69.8050   15.7830 C.3   412  THR412      0.1794
    126  OG1      -36.6240   68.8740   16.0040 O.3   412  THR412     -0.2208
    127  CG2      -37.5480   70.4300   14.4230 C.3   412  THR412      0.0378
    128  N        -35.3180   69.8400   34.3630 N.3   433  ALA433     -0.1245
    129  CA       -35.2420   70.9800   33.4480 C.3   433  ALA433      0.1562
    130  C        -35.5220   72.2810   34.2040 C.2   433  ALA433      0.2260
    131  O        -35.1190   73.3500   33.7680 O.2   433  ALA433     -0.2867
    132  CB       -36.1780   70.8240   32.2390 C.3   433  ALA433      0.0290
    133  N        -44.5350   64.5150   25.2430 N.3   496  ASP496     -0.1239
    134  CA       -43.7320   64.1690   26.4140 C.3   496  ASP496      0.1674
    135  C        -44.5850   64.0320   27.6530 C.2   496  ASP496      0.2266
    136  O        -45.6190   64.6720   27.7720 O.2   496  ASP496     -0.2867
    137  CB       -42.6770   65.2410   26.6870 C.3   496  ASP496      0.1410
    138  CG       -41.4640   65.0920   25.8220 C.2   496  ASP496      0.3668
    139  OD1      -40.9640   63.9510   25.6820 O.co2 496  ASP496     -0.2456
    140  OD2      -41.0080   66.1130   25.2930 O.co2 496  ASP496     -0.2456
    141  N        -38.6180   65.9750   33.0450 N.3   508  ILE508     -0.1245
    142  CA       -39.1410   65.3170   31.8550 C.3   508  ILE508      0.1561
    143  C        -38.8420   63.8360   31.9160 C.2   508  ILE508      0.2260
    144  O        -37.6970   63.4450   32.0830 O.2   508  ILE508     -0.2867
    145  CB       -38.6480   65.9390   30.5540 C.3   508  ILE508      0.0252
    146  CG1      -39.4300   67.2260   30.3080 C.3   508  ILE508      0.0019
    147  CG2      -38.9050   64.9940   29.3580 C.3   508  ILE508      0.0019
    148  CD1      -38.8430   68.3930   30.9880 C.3   508  ILE508      0.0001
    149  N        -39.8820   61.6540   29.4560 N.3   510  GLY510     -0.1210
    150  CA       -39.6530   61.1260   28.0980 C.3   510  GLY510      0.1956
    151  C        -40.9080   61.0790   27.2390 C.2   510  GLY510      0.2611
    152  O        -41.9890   61.4370   27.7080 O.2   510  GLY510     -0.2717
    153  N        -40.7830   60.6420   25.9880 N.am  511  ARG511     -0.1979
    154  CA       -41.9470   60.5640   25.0900 C.3   511  ARG511      0.1597
    155  C        -42.9660   59.5950   25.6390 C.2   511  ARG511      0.2287
    156  O        -42.5680   58.5190   26.1410 O.2   511  ARG511     -0.2864
    157  CB       -41.5750   60.0950   23.6740 C.3   511  ARG511      0.0334
    158  CG       -40.5680   60.9500   22.9460 C.3   511  ARG511      0.0492
    159  CD       -41.0730   62.3620   22.6190 C.3   511  ARG511      0.2205
    160  NE       -42.1260   62.3690   21.6170 N.pl3 511  ARG511     -0.0865
    161  CZ       -42.3800   63.3830   20.7810 C.cat 511  ARG511      0.5346
    162  NH1      -41.6610   64.4980   20.8040 N.pl3 511  ARG511      0.1354
    163  NH2      -43.3710   63.2880   19.9180 N.pl3 511  ARG511      0.1354
    164  N        -36.0980   57.7780   21.7610 N.3   517  ASN517     -0.1240
    165  CA       -34.8810   58.5520   21.8340 C.3   517  ASN517      0.1653
    166  C        -33.7300   57.5780   21.8620 C.2   517  ASN517      0.2266
    167  O        -33.5180   56.8740   22.8360 O.2   517  ASN517     -0.2867
    168  CB       -34.8570   59.4950   23.0510 C.3   517  ASN517      0.1155
    169  CG       -35.7590   60.6610   22.9260 C.2   517  ASN517      0.2627
    170  OD1      -35.5200   61.4760   22.0260 O.2   517  ASN517     -0.2716
    171  ND2      -36.7500   60.7770   23.7260 N.am  517  ASN517     -0.0877
    172  N        -30.1270   60.1180   21.8640 N.3   520  GLY520     -0.1225
    173  CA       -30.6430   61.4710   21.7060 C.3   520  GLY520      0.1811
    174  C        -31.1470   61.8370   20.3130 C.2   520  GLY520      0.2280
    175  O        -31.4020   63.0120   20.0460 O.2   520  GLY520     -0.2866
    176  N        -34.2330   61.4400   17.6010 N.3   522  ARG522     -0.1245
    177  CA       -35.6480   61.1530   17.6620 C.3   522  ARG522      0.1563
    178  C        -36.0900   60.3140   16.4560 C.2   522  ARG522      0.2260
    179  O        -35.8850   60.7010   15.3160 O.2   522  ARG522     -0.2867
    180  CB       -36.4010   62.4750   17.7840 C.3   522  ARG522      0.0307
    181  CG       -37.8770   62.4700   17.4540 C.3   522  ARG522      0.0489
    182  CD       -38.3880   63.8930   17.6560 C.3   522  ARG522      0.2205
    183  NE       -39.7260   64.1070   17.1120 N.pl3 522  ARG522     -0.0865
    184  CZ       -40.4220   65.2420   17.2400 C.cat 522  ARG522      0.5346
    185  NH1      -39.9170   66.2960   17.9160 N.pl3 522  ARG522      0.1354
    186  NH2      -41.6370   65.3130   16.6910 N.pl3 522  ARG522      0.1354
@<TRIPOS>BOND
     1     1     2    1
     2     4     3    2
     3     2     3    1
     4     2     5    1
     5     6     5    1
     6    21    20   ar
     7    21    19   ar
     8    20    18   ar
     9     5     7    1
    10     8     9    1
    11    19    17   ar
    12    18    15   ar
    13     9    10    1
    14     9    12    1
    15    17    15   ar
    16    17    16   ar
    17    15    13   ar
    18    11    10    2
    19    10    22   am
    20   127   125    1
    21    16    14   ar
    22    13    14   ar
    23    13    12    1
    24    22    23    1
    25   179   178    2
    26    23    26    1
    27    23    24    1
    28   125   126    1
    29   125   122    1
    30    26    28    1
    31    26    27    1
    32   124   123    2
    33    25    24    2
    34    24    29   am
    35   178   177    1
    36   123   122    1
    37   186   184    1
    38   122   121    1
    39   183   184    2
    40   183   182    1
    41    29    30    1
    42   184   185    1
    43   181   182    1
    44   181   180    1
    45    31    32    2
    46    31    30    1
    47   176   177    1
    48   177   180    1
    49   121   114   am
    50    30    33    1
    51    33    34    1
    52    33    35    1
    53   115   114    2
    54   114   113    1
    55   110   111   ar
    56   110   108   ar
    57   111   109   ar
    58   163   161    1
    59   175   174    2
    60   174   173    1
    61   116   113    1
    62   116   117    1
    63   113   112    1
    64   108   105   ar
    65   109   107   ar
    66   161   162    1
    67   161   160    2
    68   119   118    2
    69   160   159    1
    70   173   172    1
    71   112   100   am
    72   118   120   am
    73   118   117    1
    74   164   165    1
    75   165   166    1
    76   165   168    1
    77   107   105   ar
    78   107   106   ar
    79   105   103   ar
    80   166   167    2
    81   170   169    2
    82   159   158    1
    83   100   101    2
    84   100    99    1
    85   169   168    1
    86   169   171   am
    87   158   157    1
    88   106   104   ar
    89   103   102    1
    90   103   104   ar
    91    52    51    2
    92   102    99    1
    93   157   154    1
    94    48    46    1
    95    50    51    1
    96    50    49    1
    97    47    46    1
    98    99    98    1
    99    51    53   am
   100    61    59   ar
   101    46    43    1
   102    45    44    2
   103    49    44   am
   104   154   155    1
   105   154   153    1
   106    44    43    1
   107    98    86   am
   108   133   134    1
   109   140   138   ar
   110    59    58    1
   111    59    60   ar
   112   155   156    2
   113    53    54    1
   114   139   138   ar
   115    58    57    1
   116    43    42    1
   117   138   137    1
   118    95    97   ar
   119    95    93   ar
   120    57    54    1
   121    97    96   ar
   122   153   151   am
   123    54    55    1
   124    86    87    2
   125    86    85    1
   126   134   137    1
   127   134   135    1
   128    93    92   ar
   129    93    91   ar
   130    82    81    1
   131    92    90   ar
   132    96    94   ar
   133    42    38   am
   134    80    79    2
   135    91    94   ar
   136    91    89   ar
   137    90    89   ar
   138   151   152    2
   139   151   150    1
   140    81    83    1
   141    81    78    1
   142    85    84    1
   143    85    88    1
   144    89    88    1
   145   135   136    2
   146    79    84   am
   147    79    78    1
   148    38    39    2
   149    38    37    1
   150    55    56    2
   151    55    62   am
   152   150   149    1
   153    68    62    1
   154    68    67    1
   155    78    77    1
   156    37    36    1
   157    37    40    1
   158    62    63    1
   159    77    71   am
   160   147   145    1
   161    67    66    1
   162    41    40    1
   163    65    64    2
   164    63    64    1
   165    63    66    1
   166   146   145    1
   167   146   148    1
   168    71    72    2
   169    71    70    1
   170   145   142    1
   171    75    74   ar
   172    70    69    1
   173    70    73    1
   174    74    73    1
   175    74    76   ar
   176   142   143    1
   177   142   141    1
   178   143   144    2
   179   132   129    1
   180   129   130    1
   181   129   128    1
   182   131   130    2
