@<TRIPOS>MOLECULE
tmp/2p2hA00.pdb
 181 171 0 0 0
SMALL
GASTEIGER

@<TRIPOS>ATOM
      1  N         13.1290   15.2940   47.5490 N.3    26  LEU26      -0.1231
      2  CA        12.9070   16.1390   46.3800 C.3    26  LEU26       0.1693
      3  C         13.5240   17.5120   46.6260 C.2    26  LEU26       0.2592
      4  O         13.8920   18.2220   45.6880 O.2    26  LEU26      -0.2718
      5  CB        11.4070   16.2980   46.1140 C.3    26  LEU26       0.0284
      6  CG        10.6270   15.0420   45.7230 C.3    26  LEU26       0.0019
      7  CD1        9.1460   15.3720   45.6130 C.3    26  LEU26       0.0001
      8  CD2       11.1610   14.5020   44.4040 C.3    26  LEU26       0.0001
      9  N         13.6300   17.8740   47.9010 N.am   27  GLY27      -0.1957
     10  CA        14.1960   19.1540   48.2830 C.3    27  GLY27       0.1869
     11  C         14.1890   19.2850   49.7930 C.2    27  GLY27       0.2309
     12  O         13.6880   18.4040   50.4880 O.2    27  GLY27      -0.2863
     13  N         11.3530   17.9160   51.7470 N.3    30  VAL30      -0.1245
     14  CA        10.2750   17.2720   51.0050 C.3    30  VAL30       0.1561
     15  C         10.7360   15.9330   50.4380 C.2    30  VAL30       0.2260
     16  O         11.7950   15.8390   49.8140 O.2    30  VAL30      -0.2867
     17  CB         9.7940   18.1660   49.8520 C.3    30  VAL30       0.0252
     18  CG1        8.5740   17.5440   49.1820 C.3    30  VAL30       0.0019
     19  CG2        9.4760   19.5530   50.3830 C.3    30  VAL30       0.0019
     20  N          3.9510   13.4630   47.7870 N.3    48  ALA48      -0.1245
     21  CA         5.0540   14.2750   48.2800 C.3    48  ALA48       0.1562
     22  C          4.8220   14.3710   49.7780 C.2    48  ALA48       0.2260
     23  O          3.6850   14.5220   50.2260 O.2    48  ALA48      -0.2867
     24  CB         5.0270   15.6620   47.6440 C.3    48  ALA48       0.0290
     25  N          6.1900   16.2500   53.3970 N.3    50  LYS50      -0.1245
     26  CA         7.0040   17.2350   54.0910 C.3    50  LYS50       0.1561
     27  C          7.0880   16.6930   55.5120 C.2    50  LYS50       0.2260
     28  O          6.0780   16.5790   56.2060 O.2    50  LYS50      -0.2867
     29  CB         6.3350   18.6150   54.0610 C.3    50  LYS50       0.0271
     30  CG         7.2240   19.7370   54.5750 C.3    50  LYS50       0.0035
     31  CD         6.6540   21.1290   54.2780 C.3    50  LYS50       0.0206
     32  CE         6.6490   21.4310   52.7860 C.3    50  LYS50       0.1093
     33  NZ         6.2870   22.8500   52.4930 N.3    50  LYS50      -0.1314
     34  N          1.2270   25.0840   58.5410 N.3    67  GLU67      -0.1245
     35  CA         1.1300   24.8690   57.1010 C.3    67  GLU67       0.1567
     36  C          0.0050   23.8710   56.8100 C.2    67  GLU67       0.2260
     37  O         -0.8100   24.0760   55.9070 O.2    67  GLU67      -0.2867
     38  CB         2.4600   24.3350   56.5680 C.3    67  GLU67       0.0388
     39  CG         2.6230   24.4680   55.0710 C.3    67  GLU67       0.1160
     40  CD         3.9860   24.0020   54.5880 C.2    67  GLU67       0.3649
     41  OE1        5.0000   24.3420   55.2390 O.co2  67  GLU67      -0.2457
     42  OE2        4.0390   23.3060   53.5530 O.co2  67  GLU67      -0.2457
     43  N         -3.3860   24.6360   54.6750 N.3    71  LEU71      -0.1245
     44  CA        -3.7560   23.8460   53.5070 C.3    71  LEU71       0.1561
     45  C         -5.1950   23.3580   53.6480 C.2    71  LEU71       0.2260
     46  O         -5.9820   23.4380   52.7030 O.2    71  LEU71      -0.2867
     47  CB        -2.8110   22.6530   53.3500 C.3    71  LEU71       0.0270
     48  CG        -1.4030   23.0120   52.8730 C.3    71  LEU71       0.0019
     49  CD1       -0.5430   21.7600   52.8050 C.3    71  LEU71       0.0001
     50  CD2       -1.4950   23.6770   51.5050 C.3    71  LEU71       0.0001
     51  N         -1.2660   22.3470   44.2930 N.3    81  VAL81      -0.1245
     52  CA        -0.7670   21.0860   44.8460 C.3    81  VAL81       0.1561
     53  C         -1.6340   20.8360   46.0780 C.2    81  VAL81       0.2260
     54  O         -1.5270   21.5530   47.0750 O.2    81  VAL81      -0.2867
     55  CB         0.7160   21.2060   45.2630 C.3    81  VAL81       0.0252
     56  CG1        1.1860   19.9200   45.9490 C.3    81  VAL81       0.0019
     57  CG2        1.5650   21.4930   44.0320 C.3    81  VAL81       0.0019
     58  N          3.2060   15.8690   56.4270 N.3    96  VAL96      -0.1245
     59  CA         2.1280   16.4630   55.6480 C.3    96  VAL96       0.1561
     60  C          2.2590   15.8640   54.2570 C.2    96  VAL96       0.2260
     61  O          3.3160   15.9460   53.6320 O.2    96  VAL96      -0.2867
     62  CB         2.2540   17.9930   55.5850 C.3    96  VAL96       0.0252
     63  CG1        1.1160   18.5730   54.7650 C.3    96  VAL96       0.0019
     64  CG2        2.2300   18.5630   57.0030 C.3    96  VAL96       0.0019
     65  N          1.0000   15.5350   50.2770 N.3    98  THR98      -0.1203
     66  CA         0.3320   16.2060   49.1680 C.3    98  THR98       0.1994
     67  C          0.4750   15.4380   47.8640 C.2    98  THR98       0.2618
     68  O          1.2060   14.4510   47.7790 O.2    98  THR98      -0.2717
     69  CB         0.9070   17.6150   48.9170 C.3    98  THR98       0.1784
     70  OG1        2.2480   17.5030   48.4210 O.3    98  THR98      -0.2211
     71  CG2        0.9130   18.4240   50.2030 C.3    98  THR98       0.0376
     72  N         -0.2370   15.9090   46.8480 N.am   99  GLU99      -0.1965
     73  CA        -0.1730   15.3060   45.5300 C.3    99  GLU99       0.1733
     74  C          1.2720   15.4180   45.0730 C.2    99  GLU99       0.2616
     75  O          2.0200   16.2720   45.5610 O.2    99  GLU99      -0.2715
     76  CB        -1.0830   16.0630   44.5630 C.3    99  GLU99       0.0429
     77  CG        -2.5530   15.7960   44.7700 C.3    99  GLU99       0.1163
     78  CD        -3.4320   16.7620   44.0060 C.2    99  GLU99       0.3649
     79  OE1       -4.5820   16.3880   43.7000 O.co2  99  GLU99      -0.2457
     80  OE2       -2.9820   17.8960   43.7260 O.co2  99  GLU99      -0.2457
     81  N          1.6600   14.5520   44.1440 N.am  100  PHE100     -0.1960
     82  CA         3.0190   14.5470   43.6150 C.3   100  PHE100      0.1771
     83  C          2.9920   14.9400   42.1410 C.2   100  PHE100      0.2620
     84  O          2.1760   14.4290   41.3720 O.2   100  PHE100     -0.2715
     85  CB         3.6330   13.1520   43.7650 C.3   100  PHE100      0.0574
     86  CG         5.0130   13.0320   43.1900 C.ar  100  PHE100     -0.0200
     87  CD1        6.0840   13.6700   43.7880 C.ar  100  PHE100     -0.0042
     88  CD2        5.2360   12.2900   42.0410 C.ar  100  PHE100     -0.0042
     89  CE1        7.3560   13.5740   43.2520 C.ar  100  PHE100     -0.0003
     90  CE2        6.5030   12.1880   41.4980 C.ar  100  PHE100     -0.0003
     91  CZ         7.5670   12.8320   42.1060 C.ar  100  PHE100     -0.0000
     92  N          3.8780   15.8540   41.7590 N.am  101  CYS101     -0.1954
     93  CA         3.9640   16.3100   40.3750 C.3   101  CYS101      0.1843
     94  C          5.2420   15.7510   39.7640 C.2   101  CYS101      0.2625
     95  O          6.3290   16.2930   39.9490 O.2   101  CYS101     -0.2714
     96  CB         3.9600   17.8380   40.3280 C.3   101  CYS101      0.0997
     97  SG         2.4680   18.5400   41.0690 S.3   101  CYS101     -0.0797
     98  N          5.0790   14.6580   39.0270 N.am  102  LYS102     -0.1963
     99  CA         6.1740   13.9280   38.3920 C.3   102  LYS102      0.1728
    100  C          7.2250   14.6940   37.5860 C.2   102  LYS102      0.2616
    101  O          8.4090   14.3630   37.6450 O.2   102  LYS102     -0.2715
    102  CB         5.5860   12.8330   37.4910 C.3   102  LYS102      0.0311
    103  CG         6.6270   11.9490   36.8280 C.3   102  LYS102      0.0038
    104  CD         6.0360   11.1730   35.6590 C.3   102  LYS102      0.0206
    105  CE         4.7830   10.4210   36.0640 C.3   102  LYS102      0.1093
    106  NZ         4.2190    9.6410   34.9180 N.3   102  LYS102     -0.1314
    107  N          6.8090   15.7190   36.8490 N.am  103  PHE103     -0.1960
    108  CA         7.7360   16.4450   35.9840 C.3   103  PHE103      0.1771
    109  C          8.4710   17.6790   36.5090 C.2   103  PHE103      0.2620
    110  O          9.1720   18.3560   35.7530 O.2   103  PHE103     -0.2715
    111  CB         7.0130   16.7730   34.6750 C.3   103  PHE103      0.0574
    112  CG         6.4490   15.5550   33.9870 C.ar  103  PHE103     -0.0200
    113  CD1        7.2900   14.5480   33.5350 C.ar  103  PHE103     -0.0042
    114  CD2        5.0820   15.3890   33.8410 C.ar  103  PHE103     -0.0042
    115  CE1        6.7750   13.3940   32.9540 C.ar  103  PHE103     -0.0003
    116  CE2        4.5620   14.2380   33.2620 C.ar  103  PHE103     -0.0003
    117  CZ         5.4110   13.2400   32.8190 C.ar  103  PHE103     -0.0000
    118  N          8.3290   17.9740   37.7950 N.am  104  GLY104     -0.1940
    119  CA         9.0340   19.1180   38.3500 C.3   104  GLY104      0.2014
    120  C          8.4870   20.4840   37.9840 C.2   104  GLY104      0.2638
    121  O          7.3730   20.6040   37.4790 O.2   104  GLY104     -0.2714
    122  N          9.2890   21.5170   38.2260 N.am  105  ASN105     -0.1972
    123  CA         8.8780   22.8890   37.9650 C.3   105  ASN105      0.1688
    124  C          8.8280   23.2500   36.4810 C.2   105  ASN105      0.2292
    125  O          9.6080   22.7450   35.6660 O.2   105  ASN105     -0.2864
    126  CB         9.7800   23.8620   38.7400 C.3   105  ASN105      0.1181
    127  CG        11.0810   24.1520   38.0290 C.2   105  ASN105      0.2629
    128  OD1       11.1240   24.9680   37.1080 O.2   105  ASN105     -0.2716
    129  ND2       12.1520   23.4860   38.4490 N.am  105  ASN105     -0.0877
    130  N          9.0530   28.8050   38.5620 N.3   164  ARG164     -0.1245
    131  CA         9.7240   27.8070   39.3930 C.3   164  ARG164      0.1563
    132  C          8.7600   27.2030   40.4090 C.2   164  ARG164      0.2260
    133  O          8.9930   26.1030   40.9130 O.2   164  ARG164     -0.2867
    134  CB        10.9250   28.4230   40.1340 C.3   164  ARG164      0.0307
    135  CG        10.5590   29.5920   41.0430 C.3   164  ARG164      0.0489
    136  CD        11.7040   29.9960   41.9890 C.3   164  ARG164      0.2205
    137  NE        11.4040   31.2680   42.6500 N.pl3 164  ARG164     -0.0865
    138  CZ        11.3680   32.4350   42.0120 C.cat 164  ARG164      0.5346
    139  NH1       11.0800   33.5520   42.6640 N.pl3 164  ARG164      0.1354
    140  NH2       11.6400   32.4850   40.7150 N.pl3 164  ARG164      0.1354
    141  N          4.2790   23.4280   39.1830 N.3   167  LEU167     -0.1245
    142  CA         4.7570   22.0710   38.9360 C.3   167  LEU167      0.1561
    143  C          3.9200   21.3810   37.8620 C.2   167  LEU167      0.2260
    144  O          2.7120   21.6200   37.7450 O.2   167  LEU167     -0.2867
    145  CB         4.7240   21.2620   40.2340 C.3   167  LEU167      0.0270
    146  CG         5.3900   21.9530   41.4300 C.3   167  LEU167      0.0019
    147  CD1        5.3090   21.0480   42.6500 C.3   167  LEU167      0.0001
    148  CD2        6.8400   22.2830   41.1040 C.3   167  LEU167      0.0001
    149  N          2.4000   25.6540   43.5700 N.3   177  CYS177     -0.1221
    150  CA         2.9270   25.1000   44.8090 C.3   177  CYS177      0.1808
    151  C          3.4340   26.1960   45.7410 C.2   177  CYS177      0.2601
    152  O          3.5760   27.3490   45.3330 O.2   177  CYS177     -0.2717
    153  CB         4.0640   24.1320   44.4950 C.3   177  CYS177      0.0970
    154  SG         4.5650   23.1190   45.8920 S.3   177  CYS177     -0.0800
    155  N          3.7170   25.8150   46.9850 N.am  178  ASP178     -0.1959
    156  CA         4.2180   26.7330   48.0070 C.3   178  ASP178      0.1840
    157  C          3.2990   27.9190   48.2670 C.2   178  ASP178      0.2622
    158  O          3.7670   29.0500   48.3980 O.2   178  ASP178     -0.2715
    159  CB         5.6050   27.2650   47.6290 C.3   178  ASP178      0.1450
    160  CG         6.7010   26.2330   47.8110 C.2   178  ASP178      0.3671
    161  OD1        6.4870   25.2550   48.5520 O.co2 178  ASP178     -0.2456
    162  OD2        7.7880   26.4090   47.2220 O.co2 178  ASP178     -0.2456
    163  N          1.9980   27.6680   48.3490 N.am  179  PHE179     -0.1974
    164  CA         1.0420   28.7430   48.5940 C.3   179  PHE179      0.1639
    165  C          0.5380   28.7760   50.0370 C.2   179  PHE179      0.2290
    166  O         -0.0460   29.7690   50.4720 O.2   179  PHE179     -0.2864
    167  CB        -0.1410   28.6170   47.6320 C.3   179  PHE179      0.0560
    168  CG        -0.8980   27.3260   47.7640 C.ar  179  PHE179     -0.0200
    169  CD1       -1.8900   27.1800   48.7210 C.ar  179  PHE179     -0.0042
    170  CD2       -0.6080   26.2520   46.9410 C.ar  179  PHE179     -0.0042
    171  CE1       -2.5800   25.9860   48.8530 C.ar  179  PHE179     -0.0003
    172  CE2       -1.2920   25.0570   47.0690 C.ar  179  PHE179     -0.0003
    173  CZ        -2.2800   24.9240   48.0260 C.ar  179  PHE179     -0.0000
    174  N          2.5180   28.4210   52.8030 N.3   181  LEU181     -0.1245
    175  CA         3.6780   28.5720   53.6780 C.3   181  LEU181      0.1561
    176  C          3.4390   29.4850   54.8780 C.2   181  LEU181      0.2260
    177  O          2.4440   30.2080   54.9410 O.2   181  LEU181     -0.2867
    178  CB         4.8740   29.0950   52.8790 C.3   181  LEU181      0.0270
    179  CG         5.3300   28.2380   51.6960 C.3   181  LEU181      0.0019
    180  CD1        6.5930   28.8360   51.0910 C.3   181  LEU181      0.0001
    181  CD2        5.5870   26.8150   52.1620 C.3   181  LEU181      0.0001
@<TRIPOS>BOND
     1   117   115   ar
     2   117   116   ar
     3   115   113   ar
     4   116   114   ar
     5   113   112   ar
     6   114   112   ar
     7   112   111    1
     8   111   108    1
     9   106   105    1
    10   104   105    1
    11   104   103    1
    12   125   124    2
    13   110   109    2
    14   108   109    1
    15   108   107    1
    16   124   123    1
    17   109   118   am
    18   103   102    1
    19   107   100   am
    20   128   127    2
    21   121   120    2
    22   102    99    1
    23   100   101    2
    24   100    99    1
    25   144   143    2
    26   118   119    1
    27   143   142    1
    28   123   122    1
    29   123   126    1
    30   120   122   am
    31   120   119    1
    32   127   129   am
    33   127   126    1
    34    99    98    1
    35   130   131    1
    36   142   141    1
    37   142   145    1
    38    98    94   am
    39   131   134    1
    40   131   132    1
    41    94    95    2
    42    94    93    1
    43   134   135    1
    44   145   146    1
    45    96    93    1
    46    96    97    1
    47    93    92    1
    48   132   133    2
    49   140   138    1
    50   135   136    1
    51   148   146    1
    52    84    83    2
    53   146   147    1
    54    90    88   ar
    55    90    91   ar
    56    92    83   am
    57   136   137    1
    58   138   137    2
    59   138   139    1
    60    88    86   ar
    61    91    89   ar
    62    83    82    1
    63    86    85    1
    64    86    87   ar
    65    89    87   ar
    66   149   150    1
    67    82    85    1
    68    82    81    1
    69    79    78   ar
    70    80    78   ar
    71    78    77    1
    72    57    55    1
    73    81    74   am
    74    51    52    1
    75     8     6    1
    76   153   150    1
    77   153   154    1
    78    76    77    1
    79    76    73    1
    80   150   151    1
    81    52    55    1
    82    52    53    1
    83    74    73    1
    84    74    75    2
    85    55    56    1
    86   152   151    2
    87    73    72    1
    88     7     6    1
    89     4     3    2
    90     6     5    1
    91   151   155   am
    92    53    54    2
    93     5     2    1
    94     2     3    1
    95     2     1    1
    96     3     9   am
    97    72    67   am
    98   170   172   ar
    99   170   168   ar
   100   155   156    1
   101   172   173   ar
   102   162   160   ar
   103   159   160    1
   104   159   156    1
   105   167   168    1
   106   167   164    1
   107    24    21    1
   108   168   169   ar
   109    68    67    2
   110    20    21    1
   111   160   161   ar
   112    67    66    1
   113     9    10    1
   114   156   157    1
   115   173   171   ar
   116   157   163   am
   117   157   158    2
   118    21    22    1
   119    10    11    1
   120   163   164    1
   121    70    69    1
   122   164   165    1
   123   169   171   ar
   124    69    66    1
   125    69    71    1
   126    66    65    1
   127    18    17    1
   128    22    23    2
   129    11    12    2
   130    16    15    2
   131    17    19    1
   132    17    14    1
   133   165   166    2
   134    15    14    1
   135    14    13    1
   136   180   179    1
   137    50    48    1
   138   179   181    1
   139   179   178    1
   140    33    32    1
   141    46    45    2
   142    32    31    1
   143   174   175    1
   144    49    48    1
   145    48    47    1
   146   178   175    1
   147    47    44    1
   148    25    26    1
   149    44    45    1
   150    44    43    1
   151    42    40   ar
   152    61    60    2
   153   175   176    1
   154    29    26    1
   155    29    30    1
   156    26    27    1
   157    60    59    1
   158    31    30    1
   159    40    39    1
   160    40    41   ar
   161    63    62    1
   162   176   177    2
   163    39    38    1
   164    27    28    2
   165    62    59    1
   166    62    64    1
   167    59    58    1
   168    37    36    2
   169    38    35    1
   170    36    35    1
   171    35    34    1
