@<TRIPOS>MOLECULE
tmp/2p2iA00.pdb
 205 193 0 0 0
SMALL
GASTEIGER

@<TRIPOS>ATOM
      1  N         37.3910   25.0510   19.5590 N.3    24  LEU24      -0.1245
      2  CA        38.6820   25.5510   19.1200 C.3    24  LEU24       0.1561
      3  C         39.0090   26.7430   19.9840 C.2    24  LEU24       0.2260
      4  O         40.1340   27.2610   19.9500 O.2    24  LEU24      -0.2867
      5  CB        38.6330   25.9790   17.6470 C.3    24  LEU24       0.0270
      6  CG        38.4300   24.9120   16.5620 C.3    24  LEU24       0.0019
      7  CD1       38.3010   25.5950   15.2110 C.3    24  LEU24       0.0001
      8  CD2       39.5940   23.9430   16.5500 C.3    24  LEU24       0.0001
      9  N         34.3100   29.3120   19.5320 N.3    32  VAL32      -0.1245
     10  CA        34.6110   28.9910   18.1520 C.3    32  VAL32       0.1561
     11  C         34.7400   27.4720   18.1430 C.2    32  VAL32       0.2260
     12  O         35.5660   26.9050   18.8510 O.2    32  VAL32      -0.2867
     13  CB        35.9210   29.6430   17.6850 C.3    32  VAL32       0.0252
     14  CG1       36.3890   29.0020   16.3950 C.3    32  VAL32       0.0019
     15  CG2       35.7070   31.1330   17.4720 C.3    32  VAL32       0.0019
     16  N         35.2520   26.3260   10.6260 N.3    47  ALA47      -0.1231
     17  CA        35.3010   26.8680   11.9810 C.3    47  ALA47       0.1694
     18  C         34.0620   27.7500   12.1120 C.2    47  ALA47       0.2592
     19  O         33.7730   28.5560   11.2290 O.2    47  ALA47      -0.2718
     20  CB        36.5800   27.6840   12.1770 C.3    47  ALA47       0.0304
     21  N         33.3330   27.5930   13.2110 N.am   48  VAL48      -0.1966
     22  CA        32.0940   28.3320   13.4300 C.3    48  VAL48       0.1727
     23  C         32.1100   29.1990   14.6760 C.2    48  VAL48       0.2616
     24  O         32.4970   28.7400   15.7490 O.2    48  VAL48      -0.2715
     25  CB        30.9090   27.3450   13.5730 C.3    48  VAL48       0.0290
     26  CG1       29.6450   28.0840   13.9300 C.3    48  VAL48       0.0023
     27  CG2       30.7360   26.5350   12.2870 C.3    48  VAL48       0.0023
     28  N         31.6960   30.4510   14.5510 N.am   49  LYS49      -0.1977
     29  CA        31.6440   31.2880   15.7330 C.3    49  LYS49       0.1596
     30  C         30.1670   31.4400   16.0420 C.2    49  LYS49       0.2287
     31  O         29.3580   31.6610   15.1430 O.2    49  LYS49      -0.2864
     32  CB        32.2980   32.6550   15.4940 C.3    49  LYS49       0.0298
     33  CG        32.5550   33.4350   16.7780 C.3    49  LYS49       0.0038
     34  CD        33.3200   34.7080   16.5000 C.3    49  LYS49       0.0206
     35  CE        34.7560   34.4380   16.0790 C.3    49  LYS49       0.1093
     36  NZ        35.4380   35.7140   15.7370 N.3    49  LYS49      -0.1314
     37  N         30.8240   41.5570   12.5940 N.3    62  GLU62      -0.1245
     38  CA        31.9750   40.8210   12.0990 C.3    62  GLU62       0.1567
     39  C         31.5560   40.1680   10.7780 C.2    62  GLU62       0.2260
     40  O         32.2880   40.2160    9.7860 O.2    62  GLU62      -0.2867
     41  CB        32.4060   39.7490   13.1020 C.3    62  GLU62       0.0388
     42  CG        33.6840   39.0370   12.7060 C.3    62  GLU62       0.1160
     43  CD        34.0320   37.8720   13.6250 C.2    62  GLU62       0.3649
     44  OE1       33.9790   38.0370   14.8650 O.co2  62  GLU62      -0.2457
     45  OE2       34.3750   36.7900   13.1030 O.co2  62  GLU62      -0.2457
     46  N         31.1970   42.8470    8.1130 N.3    65  ILE65      -0.1231
     47  CA        32.4800   43.3420    7.6230 C.3    65  ILE65       0.1692
     48  C         33.2560   42.3610    6.7370 C.2    65  ILE65       0.2591
     49  O         33.8930   42.7720    5.7600 O.2    65  ILE65      -0.2718
     50  CB        33.3790   43.7890    8.7910 C.3    65  ILE65       0.0266
     51  CG1       32.6810   44.9040    9.5660 C.3    65  ILE65       0.0019
     52  CG2       34.6870   44.3510    8.2650 C.3    65  ILE65       0.0020
     53  CD1       33.5420   45.5380   10.6320 C.3    65  ILE65       0.0001
     54  N         33.2000   41.0730    7.0600 N.am   66  LEU66      -0.1980
     55  CA        33.9090   40.0760    6.2620 C.3    66  LEU66       0.1596
     56  C         33.3330   39.9950    4.8490 C.2    66  LEU66       0.2287
     57  O         34.0460   39.6890    3.8990 O.2    66  LEU66      -0.2864
     58  CB        33.8480   38.7090    6.9540 C.3    66  LEU66       0.0297
     59  CG        34.6360   38.6190    8.2670 C.3    66  LEU66       0.0022
     60  CD1       34.3410   37.3180    8.9640 C.3    66  LEU66       0.0001
     61  CD2       36.1210   38.7480    7.9810 C.3    66  LEU66       0.0001
     62  N         34.4910   43.4370    3.0970 N.3    69  ILE69      -0.1245
     63  CA        35.9020   43.3960    2.7740 C.3    69  ILE69       0.1561
     64  C         36.2510   42.5550    1.5420 C.2    69  ILE69       0.2260
     65  O         37.1180   42.9210    0.7530 O.2    69  ILE69      -0.2867
     66  CB        36.6640   42.8900    3.9970 C.3    69  ILE69       0.0252
     67  CG1       37.1440   44.0780    4.8150 C.3    69  ILE69       0.0019
     68  CG2       37.7680   41.9650    3.5890 C.3    69  ILE69       0.0019
     69  CD1       37.6680   43.6770    6.1630 C.3    69  ILE69       0.0001
     70  N         43.6480   36.3520    4.5880 N.3    75  VAL75      -0.1231
     71  CA        42.6530   36.6870    5.5910 C.3    75  VAL75       0.1692
     72  C         41.6530   35.5380    5.5700 C.2    75  VAL75       0.2591
     73  O         41.2200   35.1110    4.4990 O.2    75  VAL75      -0.2718
     74  CB        41.9380   38.0120    5.2620 C.3    75  VAL75       0.0266
     75  CG1       40.9100   38.3310    6.3420 C.3    75  VAL75       0.0020
     76  CG2       42.9580   39.1370    5.1640 C.3    75  VAL75       0.0020
     77  N         41.3130   35.0260    6.7470 N.am   76  VAL76      -0.1980
     78  CA        40.3750   33.9200    6.8560 C.3    76  VAL76       0.1595
     79  C         39.1540   34.1130    5.9500 C.2    76  VAL76       0.2287
     80  O         38.4500   35.1160    6.0420 O.2    76  VAL76      -0.2864
     81  CB        39.9220   33.7500    8.3220 C.3    76  VAL76       0.0276
     82  CG1       38.7490   32.7950    8.4010 C.3    76  VAL76       0.0022
     83  CG2       41.0770   33.2170    9.1500 C.3    76  VAL76       0.0022
     84  N         28.7490   32.2620   12.4480 N.3    91  VAL91      -0.1245
     85  CA        29.5600   32.7760   11.3460 C.3    91  VAL91       0.1561
     86  C         30.5150   31.6440   10.9860 C.2    91  VAL91       0.2260
     87  O         31.1940   31.1020   11.8520 O.2    91  VAL91      -0.2867
     88  CB        30.3220   34.0390   11.7760 C.3    91  VAL91       0.0252
     89  CG1       31.2440   34.5140   10.6580 C.3    91  VAL91       0.0019
     90  CG2       29.3120   35.1300   12.1540 C.3    91  VAL91       0.0019
     91  N         33.7100   30.0310    8.6190 N.3    93  VAL93      -0.1231
     92  CA        34.8910   30.3040    7.8000 C.3    93  VAL93       0.1692
     93  C         35.6960   29.0520    7.5250 C.2    93  VAL93       0.2592
     94  O         35.4070   27.9930    8.0670 O.2    93  VAL93      -0.2718
     95  CB        35.8310   31.3100    8.4840 C.3    93  VAL93       0.0266
     96  CG1       35.0730   32.6040    8.7990 C.3    93  VAL93       0.0020
     97  CG2       36.4180   30.6890    9.7480 C.3    93  VAL93       0.0020
     98  N         36.7090   29.1860    6.6750 N.am   94  GLU94      -0.1966
     99  CA        37.5970   28.0790    6.3360 C.3    94  GLU94       0.1733
    100  C         38.2740   27.6260    7.6230 C.2    94  GLU94       0.2616
    101  O         38.5920   28.4430    8.4860 O.2    94  GLU94      -0.2715
    102  CB        38.7060   28.5280    5.3930 C.3    94  GLU94       0.0429
    103  CG        38.3010   29.3690    4.2110 C.3    94  GLU94       0.1163
    104  CD        39.5240   29.8790    3.4400 C.2    94  GLU94       0.3649
    105  OE1       40.3630   30.5870    4.0540 O.co2  94  GLU94      -0.2457
    106  OE2       39.6440   29.5700    2.2260 O.co2  94  GLU94      -0.2457
    107  N         38.5160   26.3260    7.7360 N.am   95  PHE95      -0.1960
    108  CA        39.1760   25.7720    8.9100 C.3    95  PHE95       0.1771
    109  C         40.6820   25.6920    8.6630 C.2    95  PHE95       0.2619
    110  O         41.1160   25.0880    7.6840 O.2    95  PHE95      -0.2715
    111  CB        38.6400   24.3740    9.1900 C.3    95  PHE95       0.0574
    112  CG        39.3100   23.6890   10.3400 C.ar   95  PHE95      -0.0200
    113  CD1       39.1460   24.1560   11.6350 C.ar   95  PHE95      -0.0042
    114  CD2       40.0870   22.5660   10.1330 C.ar   95  PHE95      -0.0042
    115  CE1       39.7390   23.5150   12.6990 C.ar   95  PHE95      -0.0003
    116  CE2       40.6800   21.9230   11.1940 C.ar   95  PHE95      -0.0003
    117  CZ        40.5050   22.3980   12.4800 C.ar   95  PHE95      -0.0000
    118  N         41.4730   26.3110    9.5360 N.am   96  CYS96      -0.1968
    119  CA        42.9260   26.2730    9.3950 C.3    96  CYS96       0.1712
    120  C         43.4530   25.1600   10.2930 C.2    96  CYS96       0.2296
    121  O         43.6670   25.3380   11.4870 O.2    96  CYS96      -0.2864
    122  CB        43.5340   27.6190    9.7780 C.3    96  CYS96       0.0983
    123  SG        43.1500   28.9340    8.5880 S.3    96  CYS96      -0.0798
    124  N         46.5490   25.3690   13.2080 N.3    99  GLY99      -0.1225
    125  CA        46.5050   26.2230   14.3870 C.3    99  GLY99       0.1811
    126  C         47.1760   27.5840   14.3260 C.2    99  GLY99       0.2280
    127  O         47.6190   28.0310   13.2630 O.2    99  GLY99      -0.2866
    128  N         43.5380   44.8930    4.6550 N.3   146  LEU146     -0.1245
    129  CA        42.6040   45.3760    5.6830 C.3   146  LEU146      0.1561
    130  C         42.6860   46.8830    5.9290 C.2   146  LEU146      0.2260
    131  O         41.6700   47.5390    6.1320 O.2   146  LEU146     -0.2867
    132  CB        42.8370   44.6440    7.0150 C.3   146  LEU146      0.0270
    133  CG        42.3810   43.1820    7.1190 C.3   146  LEU146      0.0019
    134  CD1       42.7720   42.5660    8.4500 C.3   146  LEU146      0.0001
    135  CD2       40.8900   43.1350    6.9530 C.3   146  LEU146      0.0001
    136  N         39.9990   49.2220    7.7990 N.3   151  CYS151     -0.1221
    137  CA        39.8070   48.2410    8.8650 C.3   151  CYS151      0.1808
    138  C         40.9750   48.1570    9.8440 C.2   151  CYS151      0.2601
    139  O         42.1140   47.9020    9.4560 O.2   151  CYS151     -0.2717
    140  CB        39.5740   46.8520    8.2740 C.3   151  CYS151      0.0970
    141  SG        38.0860   46.6940    7.2830 S.3   151  CYS151     -0.0800
    142  N         40.6730   48.3670   11.1180 N.am  152  ILE152     -0.1965
    143  CA        41.6640   48.2950   12.1810 C.3   152  ILE152      0.1727
    144  C         41.4490   46.9540   12.8820 C.2   152  ILE152      0.2616
    145  O         40.3620   46.6980   13.4090 O.2   152  ILE152     -0.2715
    146  CB        41.4530   49.4300   13.1930 C.3   152  ILE152      0.0290
    147  CG1       41.4500   50.7660   12.4560 C.3   152  ILE152      0.0022
    148  CG2       42.5450   49.3960   14.2540 C.3   152  ILE152      0.0023
    149  CD1       40.9920   51.9200   13.2960 C.3   152  ILE152      0.0001
    150  N         42.4690   46.0990   12.8890 N.am  153  HIS153     -0.1973
    151  CA        42.3350   44.7940   13.5230 C.3   153  HIS153      0.1656
    152  C         42.1950   44.8710   15.0380 C.2   153  HIS153      0.2291
    153  O         41.3460   44.1990   15.6140 O.2   153  HIS153     -0.2864
    154  CB        43.5040   43.8800   13.1680 C.3   153  HIS153      0.0771
    155  CG        43.3300   42.4850   13.6770 C.ar  153  HIS153      0.0820
    156  ND1       43.4800   42.1560   15.0080 N.ar  153  HIS153     -0.2267
    157  CD2       42.9280   41.3520   13.0530 C.ar  153  HIS153      0.1154
    158  CE1       43.1770   40.8820   15.1820 C.ar  153  HIS153      0.1986
    159  NE2       42.8380   40.3720   14.0120 N.ar  153  HIS153     -0.2212
    160  N         46.8200   32.1530   11.6800 N.3   162  LEU162     -0.1245
    161  CA        46.6770   30.7060   11.5690 C.3   162  LEU162      0.1561
    162  C         47.4240   30.1680   10.3840 C.2   162  LEU162      0.2260
    163  O         47.4610   30.7990    9.3280 O.2   162  LEU162     -0.2867
    164  CB        45.2140   30.3460   11.4200 C.3   162  LEU162      0.0270
    165  CG        44.2860   31.0320   12.4070 C.3   162  LEU162      0.0019
    166  CD1       42.8860   30.5820   12.1010 C.3   162  LEU162      0.0001
    167  CD2       44.6720   30.7020   13.8450 C.3   162  LEU162      0.0001
    168  N         45.2070   35.8990    8.5530 N.3   171  ILE171     -0.1231
    169  CA        44.8790   36.7750    9.6680 C.3   171  ILE171      0.1692
    170  C         43.4820   36.3730   10.1300 C.2   171  ILE171      0.2592
    171  O         42.5710   36.2090    9.3110 O.2   171  ILE171     -0.2718
    172  CB        44.8560   38.2510    9.2020 C.3   171  ILE171      0.0266
    173  CG1       46.2820   38.7170    8.9050 C.3   171  ILE171      0.0019
    174  CG2       44.1780   39.1210   10.2320 C.3   171  ILE171      0.0020
    175  CD1       46.3630   39.9670    8.0470 C.3   171  ILE171      0.0001
    176  N         43.3100   36.1930   11.4290 N.am  172  CYS172     -0.1956
    177  CA        42.0040   35.8190   11.9400 C.3   172  CYS172      0.1843
    178  C         41.7450   36.5520   13.2450 C.2   172  CYS172      0.2625
    179  O         42.4410   37.5090   13.5910 O.2   172  CYS172     -0.2714
    180  CB        41.9250   34.3050   12.1720 C.3   172  CYS172      0.0997
    181  SG        42.7190   33.7520   13.7160 S.3   172  CYS172     -0.0797
    182  N         40.7400   36.0940   13.9730 N.am  173  ASP173     -0.1957
    183  CA        40.4050   36.7080   15.2430 C.3   173  ASP173      0.1840
    184  C         39.4720   35.7870   16.0100 C.2   173  ASP173      0.2622
    185  O         38.3400   35.5750   15.5940 O.2   173  ASP173     -0.2715
    186  CB        39.7240   38.0480   14.9990 C.3   173  ASP173      0.1450
    187  CG        39.6590   38.8960   16.2380 C.2   173  ASP173      0.3671
    188  OD1       38.9850   39.9450   16.1860 O.co2 173  ASP173     -0.2456
    189  OD2       40.2820   38.5250   17.2590 O.co2 173  ASP173     -0.2456
    190  N         39.9470   35.2400   17.1240 N.am  174  PHE174     -0.1974
    191  CA        39.1220   34.3480   17.9290 C.3   174  PHE174      0.1639
    192  C         38.0800   35.0890   18.7640 C.2   174  PHE174      0.2290
    193  O         37.0840   34.5020   19.1720 O.2   174  PHE174     -0.2864
    194  CB        39.9850   33.4940   18.8650 C.3   174  PHE174      0.0560
    195  CG        40.6590   32.3350   18.1910 C.ar  174  PHE174     -0.0200
    196  CD1       41.7810   32.5280   17.3880 C.ar  174  PHE174     -0.0042
    197  CD2       40.1810   31.0400   18.3710 C.ar  174  PHE174     -0.0042
    198  CE1       42.4140   31.4550   16.7820 C.ar  174  PHE174     -0.0003
    199  CE2       40.8110   29.9580   17.7650 C.ar  174  PHE174     -0.0003
    200  CZ        41.9300   30.1710   16.9700 C.ar  174  PHE174     -0.0000
    201  N         34.9110   41.0630   17.5690 N.3   177  ALA177     -0.1245
    202  CA        35.3090   42.3710   17.0440 C.3   177  ALA177      0.1562
    203  C         34.1750   43.3930   17.1060 C.2   177  ALA177      0.2260
    204  O         33.6550   43.8180   16.0690 O.2   177  ALA177     -0.2867
    205  CB        35.7920   42.2220   15.5970 C.3   177  ALA177      0.0290
@<TRIPOS>BOND
     1    65    64    2
     2    64    63    1
     3   106   104   ar
     4    63    62    1
     5    63    66    1
     6   104   105   ar
     7   104   103    1
     8    68    66    1
     9    57    56    2
    10    66    67    1
    11   103   102    1
    12    73    72    2
    13    70    71    1
    14   128   129    1
    15    67    69    1
    16    56    55    1
    17    76    74    1
    18    74    71    1
    19    74    75    1
    20   102    99    1
    21    72    71    1
    22    72    77   am
    23   129   130    1
    24   129   132    1
    25    49    48    2
    26   130   131    2
    27    79    80    2
    28    79    78    1
    29    55    58    1
    30    55    54    1
    31    99    98    1
    32    99   100    1
    33    98    93   am
    34    48    54   am
    35    48    47    1
    36    77    78    1
    37    78    81    1
    38   135   133    1
    39    58    59    1
    40   132   133    1
    41   133   134    1
    42   141   140    1
    43    93    92    1
    44    93    94    2
    45    47    46    1
    46    47    50    1
    47   100   107   am
    48   100   101    2
    49   110   109    2
    50   107   108    1
    51   136   137    1
    52    92    95    1
    53    92    91    1
    54    61    59    1
    55   175   173    1
    56    52    50    1
    57    59    60    1
    58   140   137    1
    59    81    82    1
    60    81    83    1
    61    95    96    1
    62    95    97    1
    63   168   169    1
    64   123   122    1
    65   109   108    1
    66   109   118   am
    67    50    51    1
    68   137   138    1
    69   173   172    1
    70   108   111    1
    71   111   112    1
    72   172   169    1
    73   172   174    1
    74   171   170    2
    75   163   162    2
    76   119   118    1
    77   119   122    1
    78   119   120    1
    79   139   138    2
    80    51    53    1
    81   169   170    1
    82    40    39    2
    83   138   142   am
    84   170   176   am
    85   114   112   ar
    86   114   116   ar
    87   120   121    2
    88   112   113   ar
    89   162   161    1
    90    16    17    1
    91    89    88    1
    92    39    38    1
    93    86    85    1
    94    86    87    2
    95   142   143    1
    96   116   117   ar
    97    19    18    2
    98    85    88    1
    99    85    84    1
   100   164   161    1
   101   164   165    1
   102   176   177    1
   103   161   160    1
   104   113   115   ar
   105    88    90    1
   106   177   180    1
   107   177   178    1
   108    17    18    1
   109    17    20    1
   110    38    37    1
   111    38    41    1
   112   166   165    1
   113    18    21   am
   114   180   181    1
   115   143   144    1
   116   143   146    1
   117    27    25    1
   118   165   167    1
   119   147   146    1
   120   147   149    1
   121   117   115   ar
   122    42    41    1
   123    42    43    1
   124   144   150   am
   125   144   145    2
   126   150   151    1
   127   157   155   ar
   128   157   159   ar
   129    45    43   ar
   130   154   151    1
   131   154   155    1
   132   146   148    1
   133   124   125    1
   134    21    22    1
   135   178   179    2
   136   178   182   am
   137   127   126    2
   138    22    25    1
   139    22    23    1
   140   151   152    1
   141    25    26    1
   142    43    44   ar
   143   155   156   ar
   144   182   183    1
   145   159   158   ar
   146   126   125    1
   147    28    23   am
   148    28    29    1
   149    23    24    2
   150   186   183    1
   151   186   187    1
   152   156   158   ar
   153   152   153    2
   154    31    30    2
   155     7     6    1
   156   183   184    1
   157    32    29    1
   158    32    33    1
   159   185   184    2
   160   205   202    1
   161    29    30    1
   162    36    35    1
   163   184   190   am
   164   204   203    2
   165    35    34    1
   166   188   187   ar
   167   187   189   ar
   168    14    13    1
   169    34    33    1
   170     8     6    1
   171     6     5    1
   172   198   200   ar
   173   198   196   ar
   174   200   199   ar
   175   202   203    1
   176   202   201    1
   177   190   191    1
   178   196   195   ar
   179    15    13    1
   180     5     2    1
   181    13    10    1
   182   199   197   ar
   183   191   192    1
   184   191   194    1
   185    11    10    1
   186    11    12    2
   187    10     9    1
   188   195   197   ar
   189   195   194    1
   190   192   193    2
   191     2     1    1
   192     2     3    1
   193     4     3    2
