@<TRIPOS>MOLECULE
tmp/2p2iB00.pdb
 211 200 0 0 0
SMALL
GASTEIGER

@<TRIPOS>ATOM
      1  N         26.1560   -0.4700   16.3380 N.3    21  LEU21      -0.1245
      2  CA        27.3090   -0.2570   17.2000 C.3    21  LEU21       0.1561
      3  C         27.3970   -1.4260   18.1640 C.2    21  LEU21       0.2260
      4  O         28.3600   -1.5480   18.9240 O.2    21  LEU21      -0.2867
      5  CB        27.1600    1.0440   17.9920 C.3    21  LEU21       0.0270
      6  CG        27.1170    2.3690   17.2310 C.3    21  LEU21       0.0019
      7  CD1       26.8560    3.4950   18.2180 C.3    21  LEU21       0.0001
      8  CD2       28.4280    2.5950   16.4910 C.3    21  LEU21       0.0001
      9  N         22.1590   -1.3010   19.5000 N.3    26  VAL26      -0.1245
     10  CA        22.5600    0.1050   19.4970 C.3    26  VAL26       0.1561
     11  C         22.9440    0.5370   18.0900 C.2    26  VAL26       0.2260
     12  O         23.6590   -0.1800   17.3910 O.2    26  VAL26      -0.2867
     13  CB        23.7550    0.3400   20.4310 C.3    26  VAL26       0.0252
     14  CG1       24.1050    1.8140   20.4670 C.3    26  VAL26       0.0019
     15  CG2       23.4160   -0.1500   21.8230 C.3    26  VAL26       0.0019
     16  N         23.7680    8.1090   19.4290 N.3    44  ALA44      -0.1231
     17  CA        23.6830    6.6640   19.5820 C.3    44  ALA44       0.1694
     18  C         22.2480    6.3730   20.0290 C.2    44  ALA44       0.2592
     19  O         21.7100    7.0470   20.9090 O.2    44  ALA44      -0.2718
     20  CB        24.6770    6.1810   20.6150 C.3    44  ALA44       0.0304
     21  N         21.6210    5.3790   19.4110 N.am   45  VAL45      -0.1966
     22  CA        20.2420    5.0520   19.7460 C.3    45  VAL45       0.1727
     23  C         20.0220    3.6050   20.1370 C.2    45  VAL45       0.2616
     24  O         20.3430    2.6950   19.3830 O.2    45  VAL45      -0.2715
     25  CB        19.3100    5.3410   18.5690 C.3    45  VAL45       0.0290
     26  CG1       17.8670    5.2010   19.0330 C.3    45  VAL45       0.0023
     27  CG2       19.5950    6.7350   17.9930 C.3    45  VAL45       0.0023
     28  N         19.4540    3.4010   21.3170 N.am   46  LYS46      -0.1977
     29  CA        19.1770    2.0630   21.7960 C.3    46  LYS46       0.1596
     30  C         17.7120    1.7490   21.5380 C.2    46  LYS46       0.2287
     31  O         16.8350    2.5790   21.7700 O.2    46  LYS46      -0.2864
     32  CB        19.4840    1.9580   23.2980 C.3    46  LYS46       0.0298
     33  CG        19.3530    0.5490   23.8590 C.3    46  LYS46       0.0038
     34  CD        19.9860    0.3920   25.2470 C.3    46  LYS46       0.0206
     35  CE        21.5120    0.4420   25.1910 C.3    46  LYS46       0.1093
     36  NZ        22.1290    0.3800   26.5610 N.3    46  LYS46      -0.1314
     37  N         15.9820    2.3000   31.8030 N.3    59  GLU59      -0.1245
     38  CA        17.1960    3.0080   31.4760 C.3    59  GLU59       0.1567
     39  C         16.8160    4.4590   31.2350 C.2    59  GLU59       0.2260
     40  O         17.3970    5.3600   31.8340 O.2    59  GLU59      -0.2867
     41  CB        17.8640    2.4150   30.2400 C.3    59  GLU59       0.0388
     42  CG        19.2620    2.9590   30.0230 C.3    59  GLU59       0.1160
     43  CD        20.0350    2.2070   28.9660 C.2    59  GLU59       0.3649
     44  OE1       20.0520    0.9620   29.0240 O.co2  59  GLU59      -0.2457
     45  OE2       20.6390    2.8580   28.0900 O.co2  59  GLU59      -0.2457
     46  N         15.8370    6.3930   34.4550 N.3    62  ILE62      -0.1231
     47  CA        16.9900    6.7120   35.2950 C.3    62  ILE62       0.1692
     48  C         17.9270    7.7620   34.6940 C.2    62  ILE62       0.2591
     49  O         18.3920    8.6460   35.4040 O.2    62  ILE62      -0.2718
     50  CB        17.8100    5.4440   35.6250 C.3    62  ILE62       0.0266
     51  CG1       16.9050    4.3960   36.2700 C.3    62  ILE62       0.0019
     52  CG2       18.9310    5.7810   36.5990 C.3    62  ILE62       0.0020
     53  CD1       17.6390    3.1250   36.6520 C.3    62  ILE62       0.0001
     54  N         18.2080    7.6670   33.3980 N.am   63  LEU63      -0.1980
     55  CA        19.0870    8.6310   32.7490 C.3    63  LEU63       0.1596
     56  C         18.5150   10.0350   32.8570 C.2    63  LEU63       0.2287
     57  O         19.2500   11.0220   32.7840 O.2    63  LEU63      -0.2864
     58  CB        19.3010    8.2750   31.2760 C.3    63  LEU63       0.0297
     59  CG        20.2590    7.1140   31.0130 C.3    63  LEU63       0.0022
     60  CD1       20.3710    6.8820   29.5230 C.3    63  LEU63       0.0001
     61  CD2       21.6200    7.4270   31.6050 C.3    63  LEU63       0.0001
     62  N         19.0370   10.9000   37.4450 N.3    66  ILE66      -0.1245
     63  CA        20.3810   11.2880   37.8780 C.3    66  ILE66       0.1561
     64  C         20.8160   12.6930   37.4570 C.2    66  ILE66       0.2260
     65  O         21.4960   13.3920   38.2130 O.2    66  ILE66      -0.2867
     66  CB        21.4370   10.3000   37.3540 C.3    66  ILE66       0.0252
     67  CG1       21.4610   10.3320   35.8210 C.3    66  ILE66       0.0019
     68  CG2       21.1470    8.9150   37.8830 C.3    66  ILE66       0.0019
     69  CD1       22.4110    9.3400   35.1980 C.3    66  ILE66       0.0001
     70  N         29.5050   11.0690   32.0450 N.3    72  VAL72      -0.1231
     71  CA        28.4880   10.0340   31.8930 C.3    72  VAL72       0.1692
     72  C         27.7840   10.4210   30.6090 C.2    72  VAL72       0.2591
     73  O         27.3420   11.5530   30.4910 O.2    72  VAL72      -0.2718
     74  CB        27.4460   10.0530   33.0260 C.3    72  VAL72       0.0266
     75  CG1       26.4940    8.8740   32.8560 C.3    72  VAL72       0.0020
     76  CG2       28.1310   10.0000   34.3870 C.3    72  VAL72       0.0020
     77  N         27.6990    9.5040   29.6430 N.am   73  VAL73      -0.1980
     78  CA        27.0450    9.8250   28.3760 C.3    73  VAL73       0.1595
     79  C         25.6970   10.4330   28.7160 C.2    73  VAL73       0.2287
     80  O         24.9040    9.8380   29.4390 O.2    73  VAL73      -0.2864
     81  CB        26.8520    8.5740   27.4740 C.3    73  VAL73       0.0276
     82  CG1       28.1890    7.9060   27.2290 C.3    73  VAL73       0.0022
     83  CG2       25.8700    7.6060   28.1000 C.3    73  VAL73       0.0022
     84  N         15.9520    5.2140   22.7960 N.3    88  VAL88      -0.1245
     85  CA        16.6280    6.0710   23.7660 C.3    88  VAL88       0.1561
     86  C         17.7870    6.7100   23.0120 C.2    88  VAL88       0.2260
     87  O         18.5850    6.0080   22.3900 O.2    88  VAL88      -0.2867
     88  CB        17.1800    5.2490   24.9490 C.3    88  VAL88       0.0252
     89  CG1       17.9830    6.1430   25.8880 C.3    88  VAL88       0.0019
     90  CG2       16.0320    4.6010   25.6840 C.3    88  VAL88       0.0019
     91  N         21.2290    9.1490   22.9810 N.3    90  VAL90      -0.1231
     92  CA        22.3070    9.7590   23.7500 C.3    90  VAL90       0.1692
     93  C         23.3420   10.3490   22.7970 C.2    90  VAL90       0.2592
     94  O         23.3070   10.1020   21.5940 O.2    90  VAL90      -0.2718
     95  CB        23.0170    8.7330   24.6730 C.3    90  VAL90       0.0266
     96  CG1       22.0580    8.2440   25.7370 C.3    90  VAL90       0.0020
     97  CG2       23.5640    7.5730   23.8440 C.3    90  VAL90       0.0020
     98  N         24.2540   11.1420   23.3470 N.am   91  GLU91      -0.1966
     99  CA        25.3200   11.7540   22.5640 C.3    91  GLU91       0.1733
    100  C         26.2890   10.6670   22.0930 C.2    91  GLU91       0.2616
    101  O         26.6760    9.7910   22.8630 O.2    91  GLU91      -0.2715
    102  CB        26.0660   12.7700   23.4200 C.3    91  GLU91       0.0429
    103  CG        26.5080   12.1930   24.7560 C.3    91  GLU91       0.1163
    104  CD        27.8480   12.7380   25.2130 C.2    91  GLU91       0.3649
    105  OE1       27.9450   13.9420   25.5480 O.co2  91  GLU91      -0.2457
    106  OE2       28.8130   11.9490   25.2190 O.co2  91  GLU91      -0.2457
    107  N         26.6730   10.7230   20.8250 N.am   92  PHE92      -0.1960
    108  CA        27.5860    9.7390   20.2550 C.3    92  PHE92       0.1771
    109  C         29.0570   10.0480   20.5240 C.2    92  PHE92       0.2619
    110  O         29.5030   11.1790   20.3200 O.2    92  PHE92      -0.2715
    111  CB        27.3710    9.6670   18.7530 C.3    92  PHE92       0.0574
    112  CG        28.3590    8.8040   18.0430 C.ar   92  PHE92      -0.0200
    113  CD1       28.2990    7.4240   18.1520 C.ar   92  PHE92      -0.0042
    114  CD2       29.3310    9.3680   17.2370 C.ar   92  PHE92      -0.0042
    115  CE1       29.1910    6.6110   17.4610 C.ar   92  PHE92      -0.0003
    116  CE2       30.2250    8.5660   16.5440 C.ar   92  PHE92      -0.0003
    117  CZ        30.1510    7.1810   16.6570 C.ar   92  PHE92      -0.0000
    118  N         29.8080    9.0410   20.9690 N.am   93  CYS93      -0.1968
    119  CA        31.2400    9.1970   21.2500 C.3    93  CYS93       0.1712
    120  C         32.0760    8.6780   20.0750 C.2    93  CYS93       0.2296
    121  O         32.2190    7.4720   19.8790 O.2    93  CYS93      -0.2864
    122  CB        31.6070    8.4390   22.5200 C.3    93  CYS93       0.0983
    123  SG        30.6290    8.9110   23.9530 S.3    93  CYS93      -0.0798
    124  N         34.9690    5.4420   20.2680 N.3    96  GLY96      -0.1225
    125  CA        34.7710    4.0980   20.7750 C.3    96  GLY96       0.1811
    126  C         35.2480    3.8830   22.1970 C.2    96  GLY96       0.2280
    127  O         35.6620    4.8200   22.8720 O.2    96  GLY96      -0.2866
    128  N         27.4660    8.9850   40.0920 N.3   134  LEU134     -0.1245
    129  CA        26.4660    7.9220   40.1160 C.3   134  LEU134      0.1561
    130  C         26.1760    7.3870   41.5130 C.2   134  LEU134      0.2260
    131  O         25.0220    7.1130   41.8530 O.2   134  LEU134     -0.2867
    132  CB        26.8860    6.7700   39.1880 C.3   134  LEU134      0.0270
    133  CG        26.9230    7.0830   37.6820 C.3   134  LEU134      0.0019
    134  CD1       27.4780    5.8880   36.9330 C.3   134  LEU134      0.0001
    135  CD2       25.5330    7.4350   37.1680 C.3   134  LEU134      0.0001
    136  N         22.9480    4.9950   42.6360 N.3   139  CYS139     -0.1221
    137  CA        22.8980    4.1330   41.4610 C.3   139  CYS139      0.1808
    138  C         24.0860    3.1760   41.4580 C.2   139  CYS139      0.2601
    139  O         25.1210    3.4540   42.0680 O.2   139  CYS139     -0.2717
    140  CB        22.9440    4.9650   40.1810 C.3   139  CYS139      0.0970
    141  SG        21.5140    6.0260   39.8760 S.3   139  CYS139     -0.0800
    142  N         23.9250    2.0480   40.7730 N.am  140  ILE140     -0.1965
    143  CA        24.9820    1.0420   40.6490 C.3   140  ILE140      0.1727
    144  C         25.1120    0.7160   39.1610 C.2   140  ILE140      0.2616
    145  O         24.1200    0.4050   38.5120 O.2   140  ILE140     -0.2715
    146  CB        24.6260   -0.2600   41.3950 C.3   140  ILE140      0.0290
    147  CG1       24.3820    0.0290   42.8730 C.3   140  ILE140      0.0022
    148  CG2       25.7510   -1.2660   41.2510 C.3   140  ILE140      0.0023
    149  CD1       23.8380   -1.1640   43.6320 C.3   140  ILE140      0.0001
    150  N         26.3260    0.7890   38.6230 N.am  141  HIS141     -0.1959
    151  CA        26.5340    0.5040   37.2070 C.3   141  HIS141      0.1787
    152  C         26.3940   -0.9760   36.9030 C.2   141  HIS141      0.2620
    153  O         25.7430   -1.3510   35.9300 O.2   141  HIS141     -0.2715
    154  CB        27.9110    0.9900   36.7510 C.3   141  HIS141      0.0785
    155  CG        28.0820    0.9830   35.2640 C.ar  141  HIS141      0.0821
    156  ND1       28.2050   -0.1800   34.5350 N.ar  141  HIS141     -0.2267
    157  CD2       28.0760    1.9930   34.3610 C.ar  141  HIS141      0.1154
    158  CE1       28.2650    0.1140   33.2470 C.ar  141  HIS141      0.1986
    159  NE2       28.1870    1.4260   33.1150 N.ar  141  HIS141     -0.2212
    160  N         27.0220   -1.8070   37.7360 N.am  142  ARG142     -0.1977
    161  CA        26.9800   -3.2680   37.6070 C.3   142  ARG142      0.1597
    162  C         27.7610   -3.8880   36.4520 C.2   142  ARG142      0.2287
    163  O         27.8730   -5.1080   36.3730 O.2   142  ARG142     -0.2864
    164  CB        25.5300   -3.7610   37.5520 C.3   142  ARG142      0.0334
    165  CG        24.8440   -3.7800   38.9100 C.3   142  ARG142      0.0492
    166  CD        23.4580   -4.4190   38.8530 C.3   142  ARG142      0.2205
    167  NE        22.4060   -3.4950   38.4350 N.pl3 142  ARG142     -0.0865
    168  CZ        21.9220   -2.5090   39.1880 C.cat 142  ARG142      0.5346
    169  NH1       20.9620   -1.7250   38.7140 N.pl3 142  ARG142      0.1354
    170  NH2       22.3910   -2.3040   40.4120 N.pl3 142  ARG142      0.1354
    171  N         33.5570    5.0860   27.0890 N.3   150  LEU150     -0.1245
    172  CA        33.7660    5.6310   25.7520 C.3   150  LEU150      0.1561
    173  C         34.5360    6.9490   25.7180 C.2   150  LEU150      0.2260
    174  O         34.5580    7.7120   26.6950 O.2   150  LEU150     -0.2867
    175  CB        32.4300    5.7830   25.0280 C.3   150  LEU150      0.0270
    176  CG        31.5340    4.5420   24.9660 C.3   150  LEU150      0.0019
    177  CD1       30.4570    4.7720   23.9270 C.3   150  LEU150      0.0001
    178  CD2       32.3360    3.3050   24.6150 C.3   150  LEU150      0.0001
    179  N         31.2980    7.4040   30.9970 N.3   159  ILE159     -0.1231
    180  CA        30.7590    6.1390   31.4980 C.3   159  ILE159      0.1692
    181  C         29.4540    5.8130   30.7700 C.2   159  ILE159      0.2592
    182  O         28.5330    6.6330   30.7350 O.2   159  ILE159     -0.2718
    183  CB        30.3930    6.2150   32.9810 C.3   159  ILE159      0.0266
    184  CG1       31.6360    6.1870   33.8490 C.3   159  ILE159      0.0019
    185  CG2       29.4960    5.0530   33.3460 C.3   159  ILE159      0.0020
    186  CD1       31.3070    6.3130   35.3140 C.3   159  ILE159      0.0001
    187  N         29.3660    4.6200   30.2010 N.am  160  CYS160     -0.1956
    188  CA        28.1550    4.2360   29.5080 C.3   160  CYS160      0.1843
    189  C         27.8440    2.7700   29.7700 C.2   160  CYS160      0.2625
    190  O         28.4730    2.1280   30.6100 O.2   160  CYS160     -0.2714
    191  CB        28.3090    4.4720   28.0040 C.3   160  CYS160      0.0997
    192  SG        29.4510    3.3280   27.2100 S.3   160  CYS160     -0.0797
    193  N         26.8620    2.2490   29.0490 N.am  161  ASP161     -0.1957
    194  CA        26.4830    0.8590   29.1870 C.3   161  ASP161      0.1840
    195  C         25.7640    0.3560   27.9350 C.2   161  ASP161      0.2622
    196  O         24.7220    0.8870   27.5500 O.2   161  ASP161     -0.2715
    197  CB        25.5810    0.6800   30.4100 C.3   161  ASP161      0.1450
    198  CG        25.4130   -0.7880   30.8130 C.2   161  ASP161      0.3671
    199  OD1       24.6810   -1.0560   31.7920 O.co2 161  ASP161     -0.2456
    200  OD2       26.0130   -1.6750   30.1580 O.co2 161  ASP161     -0.2456
    201  N         26.3450   -0.6510   27.2850 N.am  162  PHE162     -0.1974
    202  CA        25.7180   -1.2590   26.1070 C.3   162  PHE162      0.1639
    203  C         24.7430   -2.3150   26.6210 C.2   162  PHE162      0.2290
    204  O         23.6590   -2.4810   26.0830 O.2   162  PHE162     -0.2864
    205  CB        26.7400   -1.9610   25.2100 C.3   162  PHE162      0.0560
    206  CG        27.5920   -1.0340   24.4010 C.ar  162  PHE162     -0.0200
    207  CD1       28.7010   -0.4260   24.9590 C.ar  162  PHE162     -0.0042
    208  CD2       27.3040   -0.8040   23.0580 C.ar  162  PHE162     -0.0042
    209  CE1       29.5170    0.3930   24.1940 C.ar  162  PHE162     -0.0003
    210  CE2       28.1100    0.0080   22.2920 C.ar  162  PHE162     -0.0003
    211  CZ        29.2200    0.6080   22.8600 C.ar  162  PHE162     -0.0000
@<TRIPOS>BOND
     1     1     2    1
     2     8     6    1
     3   116   117   ar
     4   116   114   ar
     5   117   115   ar
     6     2     5    1
     7     2     3    1
     8     6     5    1
     9     6     7    1
    10   114   112   ar
    11    12    11    2
    12   115   113   ar
    13    27    25    1
    14   112   113   ar
    15   112   111    1
    16    11    10    1
    17     3     4    2
    18    25    26    1
    19    25    22    1
    20   111   108    1
    21    24    23    2
    22    21    22    1
    23    21    18   am
    24    16    17    1
    25    10     9    1
    26    10    13    1
    27    17    18    1
    28    17    20    1
    29    22    23    1
    30   121   120    2
    31    18    19    2
    32   120   119    1
    33    23    28   am
    34   108   109    1
    35   108   107    1
    36   124   125    1
    37   110   109    2
    38    13    14    1
    39    13    15    1
    40   109   118   am
    41   125   126    1
    42   107   100   am
    43   118   119    1
    44   119   122    1
    45    28    29    1
    46    30    31    2
    47    30    29    1
    48    94    93    2
    49    29    32    1
    50   100    99    1
    51   100   101    2
    52   126   127    2
    53   210   211   ar
    54   210   208   ar
    55    87    86    2
    56   122   123    1
    57    99    98    1
    58    99   102    1
    59    84    85    1
    60    93    98   am
    61    93    92    1
    62   211   209   ar
    63    91    92    1
    64    86    85    1
    65   208   206   ar
    66    32    33    1
    67   102   103    1
    68    92    95    1
    69    85    88    1
    70    97    95    1
    71    33    34    1
    72   177   176    1
    73   209   207   ar
    74   206   207   ar
    75   206   205    1
    76   178   176    1
    77    95    96    1
    78   103   104    1
    79    88    90    1
    80    88    89    1
    81   176   175    1
    82   175   172    1
    83    35    34    1
    84    35    36    1
    85   205   202    1
    86   104   106   ar
    87   104   105   ar
    88   173   172    1
    89   173   174    2
    90   172   171    1
    91   204   203    2
    92   202   203    1
    93   202   201    1
    94   192   191    1
    95    82    81    1
    96   201   195   am
    97    81    83    1
    98    81    78    1
    99   196   195    2
   100   195   194    1
   101   191   188    1
   102    45    43   ar
   103    78    79    1
   104    78    77    1
   105    79    80    2
   106    43    44   ar
   107    43    42    1
   108   193   194    1
   109   193   189   am
   110   194   197    1
   111   188   189    1
   112   188   187    1
   113    60    59    1
   114    77    72   am
   115   189   190    2
   116    42    41    1
   117   200   198   ar
   118   187   181   am
   119    41    38    1
   120   197   198    1
   121    73    72    2
   122    72    71    1
   123   182   181    2
   124   181   180    1
   125   198   199   ar
   126   179   180    1
   127    59    58    1
   128    59    61    1
   129    39    38    1
   130    39    40    2
   131    58    55    1
   132    38    37    1
   133   180   183    1
   134    71    70    1
   135    71    74    1
   136    55    56    1
   137    55    54    1
   138    57    56    2
   139    75    74    1
   140   183   185    1
   141   183   184    1
   142    74    76    1
   143   159   158   ar
   144   159   157   ar
   145   158   156   ar
   146    54    48   am
   147   184   186    1
   148   157   155   ar
   149    46    47    1
   150   156   155   ar
   151    48    47    1
   152    48    49    2
   153    69    67    1
   154   155   154    1
   155    47    50    1
   156    50    51    1
   157    50    52    1
   158    67    66    1
   159   153   152    2
   160    51    53    1
   161   163   162    2
   162   162   161    1
   163   154   151    1
   164   152   151    1
   165   152   160   am
   166   134   133    1
   167   135   133    1
   168   151   150    1
   169    66    63    1
   170    66    68    1
   171    62    63    1
   172    64    63    1
   173    64    65    2
   174   164   161    1
   175   164   165    1
   176   161   160    1
   177   133   132    1
   178   167   166    1
   179   167   168    2
   180   145   144    2
   181   150   144   am
   182   169   168    1
   183   166   165    1
   184   144   143    1
   185   168   170    1
   186   132   129    1
   187   141   140    1
   188   128   129    1
   189   129   130    1
   190   140   137    1
   191   143   142    1
   192   143   146    1
   193   142   138   am
   194   148   146    1
   195   146   147    1
   196   138   137    1
   197   138   139    2
   198   137   136    1
   199   130   131    2
   200   147   149    1
