@<TRIPOS>MOLECULE
tmp/2p2nB00.pdb
 84 80 0 0 0
SMALL
GASTEIGER

@<TRIPOS>ATOM
      1  N        -48.4920   20.8970   41.5910 N.3    18  GLY18      -0.1225
      2  CA       -47.6260   19.8150   41.1350 C.3    18  GLY18       0.1811
      3  C        -46.4570   19.5160   42.0490 C.2    18  GLY18       0.2280
      4  O        -46.0050   20.3950   42.7800 O.2    18  GLY18      -0.2866
      5  N        -52.2290   19.4310   44.5170 N.3    50  ASP50      -0.1225
      6  CA       -51.7270   18.1270   44.1350 C.3    50  ASP50       0.1805
      7  C        -52.7130   17.6770   43.0570 C.2    50  ASP50       0.2598
      8  O        -53.9320   17.7780   43.2550 O.2    50  ASP50      -0.2718
      9  CB       -51.7510   17.1520   45.3290 C.3    50  ASP50       0.1424
     10  CG       -50.7430   17.5160   46.4320 C.2    50  ASP50       0.3668
     11  OD1      -49.5350   17.6590   46.1440 O.co2  50  ASP50      -0.2456
     12  OD2      -51.1690   17.6260   47.6080 O.co2  50  ASP50      -0.2456
     13  N        -52.1950   17.1850   41.9250 N.am   51  SER51      -0.1938
     14  CA       -53.0580   16.8110   40.8030 C.3    51  SER51       0.2055
     15  C        -53.9660   15.6300   41.1140 C.2    51  SER51       0.2643
     16  O        -54.9340   15.3990   40.4230 O.2    51  SER51      -0.2714
     17  CB       -52.2460   16.5940   39.5080 C.3    51  SER51       0.2130
     18  OG       -51.6010   15.3380   39.4660 O.3    51  SER51      -0.2179
     19  N        -53.6410   14.8870   42.1660 N.am   52  SER52      -0.1949
     20  CA       -54.4840   13.7750   42.6490 C.3    52  SER52       0.1924
     21  C        -55.8440   14.2370   43.1800 C.2    52  SER52       0.2314
     22  O        -56.7880   13.4520   43.2510 O.2    52  SER52      -0.2863
     23  CB       -53.7300   12.9460   43.7120 C.3    52  SER52       0.2116
     24  OG       -53.2260   13.7730   44.7560 O.3    52  SER52      -0.2180
     25  N        -48.2580   21.4220   36.1250 N.3    80  HIS80      -0.1226
     26  CA       -49.3140   20.5300   36.6090 C.3    80  HIS80       0.1752
     27  C        -48.6310   19.3460   37.2850 C.2    80  HIS80       0.2597
     28  O        -47.5320   18.9500   36.8830 O.2    80  HIS80      -0.2718
     29  CB       -50.1130   20.0370   35.3870 C.3    80  HIS80       0.0759
     30  CG       -51.4200   19.3850   35.7020 C.ar   80  HIS80       0.0818
     31  ND1      -51.5120   18.1340   36.2670 N.ar   80  HIS80      -0.2268
     32  CD2      -52.6940   19.7810   35.4580 C.ar   80  HIS80       0.1154
     33  CE1      -52.7860   17.7960   36.3830 C.ar   80  HIS80       0.1986
     34  NE2      -53.5210   18.7740   35.8910 N.ar   80  HIS80      -0.2212
     35  N        -49.2810   18.7720   38.2950 N.am   81  GLY81      -0.1942
     36  CA       -48.7820   17.5420   38.8860 C.3    81  GLY81       0.2014
     37  C        -48.8310   16.3930   37.8920 C.2    81  GLY81       0.2640
     38  O        -49.6930   16.3720   36.9990 O.2    81  GLY81      -0.2714
     39  N        -47.8930   15.4550   37.9990 N.am   82  THR82      -0.1936
     40  CA       -47.8990   14.3330   37.0330 C.3    82  THR82       0.2028
     41  C        -49.0920   13.3610   37.1720 C.2    82  THR82       0.2642
     42  O        -49.5770   12.7960   36.1740 O.2    82  THR82      -0.2714
     43  CB       -46.5610   13.5400   37.0380 C.3    82  THR82       0.1808
     44  OG1      -46.3340   13.0170   38.3420 O.3    82  THR82      -0.2208
     45  CG2      -45.4080   14.4360   36.6200 C.3    82  THR82       0.0379
     46  N        -49.5620   13.1260   38.3970 N.am   83  ASP83      -0.1971
     47  CA       -50.5940   12.1050   38.6150 C.3    83  ASP83       0.1709
     48  C        -51.7960   12.1570   37.6530 C.2    83  ASP83       0.2293
     49  O        -52.2650   11.1150   37.2060 O.2    83  ASP83      -0.2864
     50  CB       -51.0570   12.0530   40.0990 C.3    83  ASP83       0.1436
     51  CG       -50.0290   11.3350   41.0070 C.2    83  ASP83       0.3671
     52  OD1      -49.0910   10.6970   40.5020 O.co2  83  ASP83      -0.2456
     53  OD2      -50.1510   11.4200   42.2240 O.co2  83  ASP83      -0.2456
     54  N        -43.0810   17.7530   36.5800 N.3   108  SER108     -0.1202
     55  CA       -41.9040   17.0060   36.9850 C.3   108  SER108      0.2020
     56  C        -42.1950   15.8310   37.8980 C.2   108  SER108      0.2618
     57  O        -43.1740   15.8310   38.6880 O.2   108  SER108     -0.2717
     58  CB       -40.8990   17.9420   37.6760 C.3   108  SER108      0.2103
     59  OG       -41.5120   18.5590   38.7740 O.3   108  SER108     -0.2182
     60  N        -41.3230   14.8280   37.7990 N.am  109  GLN109     -0.1979
     61  CA       -41.3940   13.6560   38.6810 C.3   109  GLN109      0.1601
     62  C        -40.7790   13.9630   40.0530 C.2   109  GLN109      0.2287
     63  O        -41.1990   13.3950   41.0690 O.2   109  GLN109     -0.2864
     64  CB       -40.7000   12.4350   38.0360 C.3   109  GLN109      0.0394
     65  CG       -41.5110   11.7620   36.9100 C.3   109  GLN109      0.0908
     66  CD       -42.5940   10.8100   37.4410 C.2   109  GLN109      0.2608
     67  OE1      -43.5630   11.2450   38.0790 O.2   109  GLN109     -0.2717
     68  NE2      -42.4270    9.5060   37.1820 N.am  109  GLN109     -0.0878
     69  N        -39.7680   17.3550   42.5160 N.3   111  PRO111     -0.2116
     70  CA       -39.8950   18.7970   42.8190 C.3   111  PRO111      0.1372
     71  C        -38.6590   19.6110   42.4970 C.2   111  PRO111      0.2244
     72  O        -37.5440   19.1610   42.7450 O.2   111  PRO111     -0.2868
     73  CB       -40.1820   18.8040   44.3230 C.3   111  PRO111      0.0268
     74  CG       -40.9710   17.5380   44.5230 C.3   111  PRO111      0.0207
     75  CD       -40.2950   16.5190   43.6130 C.3   111  PRO111      0.0892
     76  N        -49.8600    8.5290   31.9680 N.3   154  LYS154     -0.1245
     77  CA       -48.6680    8.3080   32.8180 C.3   154  LYS154      0.1561
     78  C        -48.3950    6.8020   32.9130 C.2   154  LYS154      0.2260
     79  O        -49.0540    6.0970   33.6730 O.2   154  LYS154     -0.2867
     80  CB       -48.8350    8.9180   34.2170 C.3   154  LYS154      0.0271
     81  CG       -47.6250    8.7690   35.1590 C.3   154  LYS154      0.0035
     82  CD       -47.7660    9.7300   36.3220 C.3   154  LYS154      0.0206
     83  CE       -46.7980    9.4340   37.4140 C.3   154  LYS154      0.1093
     84  NZ       -47.1160   10.3000   38.6530 N.3   154  LYS154     -0.1314
@<TRIPOS>BOND
     1    76    77    1
     2    77    78    1
     3    77    80    1
     4    78    79    2
     5    80    81    1
     6    81    82    1
     7    29    30    1
     8    29    26    1
     9    32    30   ar
    10    32    34   ar
    11    30    31   ar
    12    34    33   ar
    13    25    26    1
    14    42    41    2
    15    31    33   ar
    16    82    83    1
    17    54    55    1
    18    26    27    1
    19    45    43    1
    20    28    27    2
    21    65    66    1
    22    65    64    1
    23    55    58    1
    24    55    56    1
    25    38    37    2
    26    40    43    1
    27    40    41    1
    28    40    39    1
    29    43    44    1
    30    41    46   am
    31    68    66   am
    32    49    48    2
    33    27    35   am
    34    83    84    1
    35    66    67    2
    36    48    47    1
    37    58    59    1
    38    60    56   am
    39    60    61    1
    40    37    39   am
    41    37    36    1
    42    56    57    2
    43    64    61    1
    44    35    36    1
    45    46    47    1
    46    47    50    1
    47    61    62    1
    48    18    17    1
    49    17    14    1
    50    62    63    2
    51    50    51    1
    52    16    15    2
    53    52    51   ar
    54    14    15    1
    55    14    13    1
    56    51    53   ar
    57    15    19   am
    58     2     1    1
    59     2     3    1
    60    13     7   am
    61     3     4    2
    62    19    20    1
    63    71    72    2
    64    71    70    1
    65    69    70    1
    66    69    75    1
    67    20    21    1
    68    20    23    1
    69    70    73    1
    70     7     8    2
    71     7     6    1
    72    21    22    2
    73    75    74    1
    74    23    24    1
    75     6     5    1
    76     6     9    1
    77    73    74    1
    78     9    10    1
    79    11    10   ar
    80    10    12   ar
