@<TRIPOS>MOLECULE
tmp/2p2tA00.pdb
 170 169 0 0 0
SMALL
GASTEIGER

@<TRIPOS>ATOM
      1  N          9.1870  -21.2290  -10.5390 N.3     7  LYS7       -0.1231
      2  CA         8.6600  -21.4480  -11.8800 C.3     7  LYS7        0.1693
      3  C          9.5220  -22.4390  -12.6350 C.2     7  LYS7        0.2592
      4  O          9.0220  -23.2650  -13.4030 O.2     7  LYS7       -0.2718
      5  CB         8.5840  -20.1260  -12.6450 C.3     7  LYS7        0.0285
      6  CG         7.5650  -19.1520  -12.0880 C.3     7  LYS7        0.0035
      7  CD         6.1430  -19.5000  -12.5260 C.3     7  LYS7        0.0206
      8  CE         5.1120  -18.6960  -11.7300 C.3     7  LYS7        0.1093
      9  NZ         3.8180  -18.4620  -12.4480 N.3     7  LYS7       -0.1314
     10  N         10.8250  -22.3550  -12.4130 N.am    8  ASN8       -0.1960
     11  CA        11.7530  -23.2710  -13.0370 C.3     8  ASN8        0.1819
     12  C         12.9690  -23.3170  -12.1480 C.2     8  ASN8        0.2621
     13  O         13.5070  -22.2830  -11.7710 O.2     8  ASN8       -0.2715
     14  CB        12.1170  -22.8030  -14.4540 C.3     8  ASN8        0.1195
     15  CG        12.8680  -23.8680  -15.2630 C.2     8  ASN8        0.2630
     16  OD1       12.9680  -25.0220  -14.8560 O.2     8  ASN8       -0.2716
     17  ND2       13.3950  -23.4730  -16.4180 N.am    8  ASN8       -0.0877
     18  N         13.3910  -24.5150  -11.7820 N.am    9  ALA9       -0.1963
     19  CA        14.5320  -24.6280  -10.9060 C.3     9  ALA9        0.1728
     20  C         15.4320  -25.8030  -11.2790 C.2     9  ALA9        0.2616
     21  O         14.9500  -26.8800  -11.6030 O.2     9  ALA9       -0.2715
     22  CB        14.0630  -24.7350   -9.4700 C.3     9  ALA9        0.0334
     23  N         16.7390  -25.5660  -11.2660 N.am   10  ASP10      -0.1971
     24  CA        17.7430  -26.6220  -11.3410 C.3    10  ASP10       0.1709
     25  C         18.7950  -26.3130  -10.2820 C.2    10  ASP10       0.2293
     26  O         19.8020  -25.6420  -10.5520 O.2    10  ASP10      -0.2864
     27  CB        18.3920  -26.6800  -12.7220 C.3    10  ASP10       0.1436
     28  CG        19.6020  -27.6050  -12.7560 C.2    10  ASP10       0.3671
     29  OD1       19.6120  -28.6090  -12.0010 O.co2  10  ASP10      -0.2456
     30  OD2       20.5460  -27.3270  -13.5320 O.co2  10  ASP10      -0.2456
     31  N          9.5620   -7.0490  -13.3520 N.3    58  ARG58      -0.1231
     32  CA         8.1880   -7.4800  -13.5710 C.3    58  ARG58       0.1694
     33  C          7.9450   -7.8600  -15.0360 C.2    58  ARG58       0.2592
     34  O          6.9500   -8.5280  -15.3600 O.2    58  ARG58      -0.2718
     35  CB         7.1940   -6.3930  -13.1290 C.3    58  ARG58       0.0321
     36  CG         7.1870   -6.0960  -11.6320 C.3    58  ARG58       0.0489
     37  CD         6.2100   -4.9660  -11.3180 C.3    58  ARG58       0.2205
     38  NE         6.3030   -4.5300   -9.9240 N.pl3  58  ARG58      -0.0865
     39  CZ         5.5120   -4.9730   -8.9440 C.cat  58  ARG58       0.5346
     40  NH1        4.5590   -5.8660   -9.2040 N.pl3  58  ARG58       0.1354
     41  NH2        5.6670   -4.5270   -7.7000 N.pl3  58  ARG58       0.1354
     42  N          8.8530   -7.4360  -15.9170 N.am   59  ASN59      -0.1960
     43  CA         8.7170   -7.7310  -17.3430 C.3    59  ASN59       0.1819
     44  C         10.0510   -7.8740  -18.0760 C.2    59  ASN59       0.2621
     45  O         10.7450   -6.8880  -18.3650 O.2    59  ASN59      -0.2715
     46  CB         7.8070   -6.7090  -18.0340 C.3    59  ASN59       0.1195
     47  CG         7.7270   -6.9150  -19.5340 C.2    59  ASN59       0.2630
     48  OD1        8.6190   -6.5120  -20.2710 O.2    59  ASN59      -0.2716
     49  ND2        6.6520   -7.5320  -19.9920 N.am   59  ASN59      -0.0877
     50  N         10.4070   -9.1200  -18.3640 N.am   60  PHE60      -0.1960
     51  CA        11.5660   -9.4180  -19.1780 C.3    60  PHE60       0.1771
     52  C         11.5160  -10.8690  -19.6190 C.2    60  PHE60       0.2620
     53  O         10.9000  -11.7100  -18.9730 O.2    60  PHE60      -0.2715
     54  CB        12.8480   -9.1600  -18.4040 C.3    60  PHE60       0.0574
     55  CG        13.0340  -10.0640  -17.2240 C.ar   60  PHE60      -0.0200
     56  CD1       12.4560   -9.7650  -16.0010 C.ar   60  PHE60      -0.0042
     57  CD2       13.8010  -11.2060  -17.3230 C.ar   60  PHE60      -0.0042
     58  CE1       12.6340  -10.6020  -14.8950 C.ar   60  PHE60      -0.0003
     59  CE2       13.9850  -12.0420  -16.2210 C.ar   60  PHE60      -0.0003
     60  CZ        13.4000  -11.7370  -15.0050 C.ar   60  PHE60      -0.0000
     61  N         12.1520  -11.1540  -20.7450 N.am   61  GLY61      -0.1940
     62  CA        12.3860  -12.5280  -21.1690 C.3    61  GLY61       0.2014
     63  C         13.8820  -12.7580  -21.1600 C.2    61  GLY61       0.2640
     64  O         14.6610  -11.8300  -21.3780 O.2    61  GLY61      -0.2714
     65  N         14.2990  -13.9840  -20.9010 N.am   62  SER62      -0.1935
     66  CA        15.7140  -14.2450  -20.8350 C.3    62  SER62       0.2055
     67  C         16.0920  -15.4620  -21.6500 C.2    62  SER62       0.2643
     68  O         15.2590  -16.3280  -21.9180 O.2    62  SER62      -0.2714
     69  CB        16.1440  -14.4410  -19.3850 C.3    62  SER62       0.2130
     70  OG        15.4820  -15.5580  -18.8130 O.3    62  SER62      -0.2179
     71  N         17.3510  -15.4980  -22.0690 N.am   63  TYR63      -0.1959
     72  CA        17.9660  -16.7200  -22.5750 C.3    63  TYR63       0.1771
     73  C         19.4270  -16.7540  -22.1600 C.2    63  TYR63       0.2619
     74  O         20.2800  -16.0950  -22.7490 O.2    63  TYR63      -0.2715
     75  CB        17.8390  -16.8650  -24.0910 C.3    63  TYR63       0.0574
     76  CG        18.1420  -18.2740  -24.5830 C.ar   63  TYR63      -0.0198
     77  CD1       17.1740  -19.2670  -24.5410 C.ar   63  TYR63      -0.0009
     78  CD2       19.3930  -18.6050  -25.0860 C.ar   63  TYR63      -0.0009
     79  CE1       17.4310  -20.5440  -24.9830 C.ar   63  TYR63       0.0417
     80  CE2       19.6630  -19.8880  -25.5380 C.ar   63  TYR63       0.0417
     81  CZ        18.6720  -20.8550  -25.4840 C.ar   63  TYR63       0.1957
     82  OH        18.9240  -22.1400  -25.9280 O.3    63  TYR63      -0.2866
     83  N         19.6920  -17.5350  -21.1270 N.am   64  VAL64      -0.1963
     84  CA        21.0020  -17.6000  -20.5460 C.3    64  VAL64       0.1727
     85  C         21.4860  -19.0450  -20.5360 C.2    64  VAL64       0.2617
     86  O         20.7230  -19.9840  -20.7930 O.2    64  VAL64      -0.2715
     87  CB        20.9710  -17.0520  -19.1240 C.3    64  VAL64       0.0290
     88  CG1       20.1450  -15.7770  -19.0880 C.3    64  VAL64       0.0023
     89  CG2       20.3840  -18.0760  -18.1690 C.3    64  VAL64       0.0023
     90  N         22.7680  -19.1940  -20.2420 N.am   65  THR65      -0.1937
     91  CA        23.4020  -20.4780  -20.0880 C.3    65  THR65       0.2028
     92  C         23.9030  -20.5340  -18.6520 C.2    65  THR65       0.2642
     93  O         24.5330  -19.5900  -18.1840 O.2    65  THR65      -0.2714
     94  CB        24.5930  -20.5660  -21.0400 C.3    65  THR65       0.1808
     95  OG1       24.1250  -20.5620  -22.3930 O.3    65  THR65      -0.2208
     96  CG2       25.4060  -21.8020  -20.7770 C.3    65  THR65       0.0379
     97  N         23.6150  -21.6160  -17.9390 N.am   66  HIS66      -0.1959
     98  CA        24.0220  -21.7140  -16.5340 C.3    66  HIS66       0.1787
     99  C         24.7220  -23.0350  -16.2220 C.2    66  HIS66       0.2620
    100  O         24.3990  -24.0820  -16.8060 O.2    66  HIS66      -0.2715
    101  CB        22.8020  -21.6040  -15.6350 C.3    66  HIS66       0.0785
    102  CG        21.8310  -22.7260  -15.8210 C.ar   66  HIS66       0.0821
    103  ND1       21.9440  -23.9280  -15.1550 N.ar   66  HIS66      -0.2267
    104  CD2       20.7420  -22.8370  -16.6150 C.ar   66  HIS66       0.1154
    105  CE1       20.9550  -24.7240  -15.5150 C.ar   66  HIS66       0.1986
    106  NE2       20.2110  -24.0870  -16.4010 N.ar   66  HIS66      -0.2212
    107  N         25.6630  -23.0010  -15.2840 N.am   67  GLU67      -0.1963
    108  CA        26.2700  -24.2390  -14.8300 C.3    67  GLU67       0.1733
    109  C         25.2030  -25.1480  -14.2280 C.2    67  GLU67       0.2617
    110  O         24.3010  -24.6930  -13.5190 O.2    67  GLU67      -0.2715
    111  CB        27.3730  -23.9710  -13.8130 C.3    67  GLU67       0.0429
    112  CG        28.6350  -23.3720  -14.4040 C.3    67  GLU67       0.1163
    113  CD        29.5020  -22.7510  -13.3280 C.2    67  GLU67       0.3649
    114  OE1       29.7020  -23.4230  -12.2910 O.co2  67  GLU67      -0.2457
    115  OE2       29.9620  -21.5960  -13.5010 O.co2  67  GLU67      -0.2457
    116  N         25.3120  -26.4370  -14.5170 N.am   68  THR68      -0.1951
    117  CA        24.3390  -27.4060  -14.0440 C.3    68  THR68       0.1897
    118  C         24.1310  -27.2980  -12.5260 C.2    68  THR68       0.2313
    119  O         25.1020  -27.2090  -11.7670 O.2    68  THR68      -0.2863
    120  CB        24.7690  -28.8320  -14.4340 C.3    68  THR68       0.1794
    121  OG1       23.6340  -29.7010  -14.4010 O.3    68  THR68      -0.2208
    122  CG2       25.8540  -29.3540  -13.4880 C.3    68  THR68       0.0378
    123  N         20.8380  -22.7560  -10.9770 N.3    71  PHE71      -0.1241
    124  CA        19.8670  -21.9580  -11.7190 C.3    71  PHE71       0.1605
    125  C         18.5020  -21.9500  -11.0420 C.2    71  PHE71       0.2264
    126  O         17.9030  -23.0070  -10.8290 O.2    71  PHE71      -0.2867
    127  CB        19.6790  -22.5130  -13.1400 C.3    71  PHE71       0.0534
    128  CG        18.5530  -21.8550  -13.9010 C.ar   71  PHE71      -0.0203
    129  CD1       18.8200  -20.9300  -14.9070 C.ar   71  PHE71      -0.0042
    130  CD2       17.2270  -22.1320  -13.5880 C.ar   71  PHE71      -0.0042
    131  CE1       17.7860  -20.3060  -15.5930 C.ar   71  PHE71      -0.0003
    132  CE2       16.1970  -21.5090  -14.2620 C.ar   71  PHE71      -0.0003
    133  CZ        16.4750  -20.5930  -15.2670 C.ar   71  PHE71      -0.0000
    134  N         14.6110  -19.5610  -10.9760 N.3    73  TYR73      -0.1241
    135  CA        13.7810  -18.5230  -11.5190 C.3    73  TYR73       0.1605
    136  C         12.4670  -18.6000  -10.7830 C.2    73  TYR73       0.2264
    137  O         11.8210  -19.6410  -10.7780 O.2    73  TYR73      -0.2867
    138  CB        13.5360  -18.7960  -12.9860 C.3    73  TYR73       0.0534
    139  CG        12.5160  -17.8790  -13.5890 C.ar   73  TYR73      -0.0201
    140  CD1       12.7370  -16.5000  -13.6240 C.ar   73  TYR73      -0.0009
    141  CD2       11.3380  -18.3740  -14.1330 C.ar   73  TYR73      -0.0009
    142  CE1       11.8180  -15.6380  -14.1840 C.ar   73  TYR73       0.0417
    143  CE2       10.4020  -17.5130  -14.6980 C.ar   73  TYR73       0.0417
    144  CZ        10.6560  -16.1430  -14.7190 C.ar   73  TYR73       0.1957
    145  OH         9.7530  -15.2680  -15.2670 O.3    73  TYR73      -0.2866
    146  N          9.0830  -16.1160   -8.5680 N.3    75  TYR75      -0.1241
    147  CA         8.4080  -14.8830   -8.2110 C.3    75  TYR75       0.1605
    148  C          8.3860  -14.6880   -6.7080 C.2    75  TYR75       0.2264
    149  O          8.1110  -15.6240   -5.9590 O.2    75  TYR75      -0.2867
    150  CB         6.9580  -14.9530   -8.6590 C.3    75  TYR75       0.0534
    151  CG         6.7680  -14.7210  -10.1140 C.ar   75  TYR75      -0.0201
    152  CD1        6.2440  -13.5210  -10.5750 C.ar   75  TYR75      -0.0009
    153  CD2        7.1250  -15.6870  -11.0380 C.ar   75  TYR75      -0.0009
    154  CE1        6.0710  -13.2940  -11.9230 C.ar   75  TYR75       0.0417
    155  CE2        6.9580  -15.4760  -12.3930 C.ar   75  TYR75       0.0417
    156  CZ         6.4290  -14.2790  -12.8300 C.ar   75  TYR75       0.1957
    157  OH         6.2490  -14.0660  -14.1760 O.3    75  TYR75      -0.2866
    158  N          9.7160  -10.8520  -10.3340 N.3    80  ALA80      -0.1245
    159  CA        10.2800  -12.1520  -10.6980 C.3    80  ALA80       0.1562
    160  C         11.8020  -12.1060  -10.6420 C.2    80  ALA80       0.2260
    161  O         12.3940  -11.0660  -10.8660 O.2    80  ALA80      -0.2867
    162  CB         9.8010  -12.5860  -12.0830 C.3    80  ALA80       0.0290
    163  N         15.6320  -14.0560  -11.4680 N.3    82  LEU82      -0.1245
    164  CA        16.4110  -15.0350  -12.1920 C.3    82  LEU82       0.1561
    165  C         17.7970  -15.0070  -11.6160 C.2    82  LEU82       0.2260
    166  O         18.4210  -13.9590  -11.5250 O.2    82  LEU82      -0.2867
    167  CB        16.4560  -14.6820  -13.6680 C.3    82  LEU82       0.0270
    168  CG        17.4250  -15.4630  -14.5420 C.3    82  LEU82       0.0019
    169  CD1       17.0920  -16.9320  -14.5080 C.3    82  LEU82       0.0001
    170  CD2       17.3690  -14.9350  -15.9650 C.3    82  LEU82       0.0001
@<TRIPOS>BOND
     1    82    81    1
     2    80    81   ar
     3    80    78   ar
     4    81    79   ar
     5    78    76   ar
     6    79    77   ar
     7    76    77   ar
     8    76    75    1
     9    75    72    1
    10    74    73    2
    11    72    73    1
    12    72    71    1
    13    95    94    1
    14    73    83   am
    15    71    67   am
    16    68    67    2
    17    67    66    1
    18    64    63    2
    19    62    63    1
    20    62    61    1
    21    63    65   am
    22    83    84    1
    23    94    96    1
    24    94    91    1
    25    65    66    1
    26    66    69    1
    27    86    85    2
    28    61    52   am
    29    84    85    1
    30    84    87    1
    31    85    90   am
    32    48    47    2
    33    90    91    1
    34    91    92    1
    35    49    47   am
    36    52    51    1
    37    52    53    2
    38    47    46    1
    39    69    70    1
    40    51    54    1
    41    51    50    1
    42    87    88    1
    43    87    89    1
    44    92    93    2
    45    92    97   am
    46    54    55    1
    47    45    44    2
    48    50    44   am
    49    44    43    1
    50    46    43    1
    51    97    98    1
    52    43    42    1
    53    57    55   ar
    54    57    59   ar
    55    55    56   ar
    56   100    99    2
    57   104   106   ar
    58   104   102   ar
    59    98    99    1
    60    98   101    1
    61    17    15   am
    62   106   105   ar
    63    99   107   am
    64    59    60   ar
    65    56    58   ar
    66   170   168    1
    67    42    33   am
    68   102   101    1
    69   102   103   ar
    70   131   133   ar
    71   131   129   ar
    72   105   103   ar
    73    34    33    2
    74   107   108    1
    75   145   144    1
    76   133   132   ar
    77    15    16    2
    78    15    14    1
    79    33    32    1
    80    60    58   ar
    81   129   128   ar
    82   108   109    1
    83   108   111    1
    84   144   143   ar
    85   144   142   ar
    86   143   141   ar
    87   168   169    1
    88   168   167    1
    89   116   109   am
    90   116   117    1
    91    14    11    1
    92   120   121    1
    93   120   117    1
    94   120   122    1
    95   112   111    1
    96   112   113    1
    97   132   130   ar
    98   109   110    2
    99   142   140   ar
   100   157   156    1
   101   141   139   ar
   102   117   118    1
   103   128   130   ar
   104   128   127    1
   105   167   164    1
   106   140   139   ar
   107   139   138    1
   108    32    31    1
   109    32    35    1
   110    30    28   ar
   111   115   113   ar
   112     4     3    2
   113   113   114   ar
   114   127   124    1
   115    35    36    1
   116    11    10    1
   117    11    12    1
   118   138   135    1
   119   156   155   ar
   120   156   154   ar
   121    28    27    1
   122    28    29   ar
   123    27    24    1
   124     5     6    1
   125     5     2    1
   126     3    10   am
   127     3     2    1
   128     7     6    1
   129     7     8    1
   130   118   119    2
   131     9     8    1
   132   155   153   ar
   133   164   165    1
   134   164   163    1
   135    12    18   am
   136    12    13    2
   137   162   159    1
   138   154   152   ar
   139     2     1    1
   140    18    19    1
   141   124   125    1
   142   124   123    1
   143    36    37    1
   144   165   166    2
   145    21    20    2
   146   135   134    1
   147   135   136    1
   148    24    23    1
   149    24    25    1
   150    37    38    1
   151    20    23   am
   152    20    19    1
   153   125   126    2
   154   153   151   ar
   155    19    22    1
   156   161   160    2
   157   136   137    2
   158   159   160    1
   159   159   158    1
   160   152   151   ar
   161    26    25    2
   162   151   150    1
   163    38    39    2
   164    40    39    1
   165    39    41    1
   166   150   147    1
   167   146   147    1
   168   147   148    1
   169   148   149    2
