@<TRIPOS>MOLECULE
tmp/2p2wA00.pdb
 140 134 0 0 0
SMALL
GASTEIGER

@<TRIPOS>ATOM
      1  N         18.0920   62.0180   17.8740 N.3    19  LEU19      -0.1245
      2  CA        17.9910   61.8870   16.4310 C.3    19  LEU19       0.1561
      3  C         18.1110   63.2730   15.8040 C.2    19  LEU19       0.2260
      4  O         17.2140   64.1000   15.9470 O.2    19  LEU19      -0.2867
      5  CB        16.6450   61.2630   16.0650 C.3    19  LEU19       0.0270
      6  CG        16.2850   61.1530   14.5830 C.3    19  LEU19       0.0019
      7  CD1       17.3560   60.3770   13.8430 C.3    19  LEU19       0.0001
      8  CD2       14.9320   60.4690   14.4480 C.3    19  LEU19       0.0001
      9  N         15.8250   54.2170   17.6540 N.3   169  GLN169     -0.1245
     10  CA        15.7040   55.4830   16.9340 C.3   169  GLN169      0.1566
     11  C         14.5100   56.3580   17.3060 C.2   169  GLN169      0.2260
     12  O         13.5920   56.5690   16.5100 O.2   169  GLN169     -0.2867
     13  CB        15.7290   55.2960   15.4130 C.3   169  GLN169      0.0367
     14  CG        15.8370   56.6600   14.7120 C.3   169  GLN169      0.0905
     15  CD        16.4010   56.5870   13.3090 C.2   169  GLN169      0.2608
     16  OE1       17.6160   56.5900   13.1100 O.2   169  GLN169     -0.2717
     17  NE2       15.5120   56.5220   12.3240 N.am  169  GLN169     -0.0878
     18  N          9.7080   56.3110   16.6480 N.3   172  ASN172     -0.1225
     19  CA         9.2480   55.8710   15.3400 C.3   172  ASN172      0.1785
     20  C          7.9060   55.1730   15.5620 C.2   172  ASN172      0.2597
     21  O          7.5010   54.9510   16.7040 O.2   172  ASN172     -0.2718
     22  CB        10.2750   54.9180   14.7270 C.3   172  ASN172      0.1169
     23  CG        10.6720   53.8130   15.6780 C.2   172  ASN172      0.2627
     24  OD1        9.9830   52.8030   15.7980 O.2   172  ASN172     -0.2716
     25  ND2       11.7820   54.0110   16.3800 N.am  172  ASN172     -0.0877
     26  N          7.2160   54.8260   14.4830 N.am  173  ALA173     -0.1979
     27  CA         5.9050   54.1900   14.5910 C.3   173  ALA173      0.1597
     28  C          5.8200   52.9710   15.5110 C.2   173  ALA173      0.2287
     29  O          4.8870   52.8700   16.3050 O.2   173  ALA173     -0.2864
     30  CB         5.3830   53.8290   13.2020 C.3   173  ALA173      0.0319
     31  N          5.1590   50.7330    5.1850 N.3   203  LEU203     -0.1231
     32  CA         5.5580   52.1290    5.3790 C.3   203  LEU203      0.1693
     33  C          6.4900   52.2950    6.5850 C.2   203  LEU203      0.2592
     34  O          6.8260   53.3950    7.0150 O.2   203  LEU203     -0.2718
     35  CB         4.2910   52.9650    5.5930 C.3   203  LEU203      0.0284
     36  CG         3.4440   53.0940    4.3260 C.3   203  LEU203      0.0019
     37  CD1        2.4090   54.2180    4.4300 C.3   203  LEU203      0.0001
     38  CD2        4.2820   53.3950    3.0860 C.3   203  LEU203      0.0001
     39  N          6.8690   51.1430    7.1690 N.am  204  HIS204     -0.1962
     40  CA         7.8020   51.1620    8.2890 C.3   204  HIS204      0.1787
     41  C          8.8960   50.1120    8.0840 C.2   204  HIS204      0.2620
     42  O          9.5790   50.0730    7.0640 O.2   204  HIS204     -0.2715
     43  CB         7.0230   50.8700    9.5810 C.3   204  HIS204      0.0785
     44  CG         7.8490   51.1910   10.8040 C.ar  204  HIS204      0.0821
     45  ND1        9.0560   51.8110   10.7660 N.ar  204  HIS204     -0.2267
     46  CD2        7.5070   50.9800   12.1470 C.ar  204  HIS204      0.1154
     47  CE1        9.4280   51.9690   12.0530 C.ar  204  HIS204      0.1986
     48  NE2        8.5190   51.4810   12.9020 N.ar  204  HIS204     -0.2212
     49  N          9.1000   49.2210    9.0750 N.am  205  GLY205     -0.1954
     50  CA        10.1720   48.2290    8.8960 C.3   205  GLY205      0.1869
     51  C          9.9360   47.2960    7.6870 C.2   205  GLY205      0.2309
     52  O         10.8640   46.8050    7.0600 O.2   205  GLY205     -0.2863
     53  N         13.1320   58.0560    1.7350 N.3   242  GLY242     -0.1210
     54  CA        12.2500   58.9080    2.5100 C.3   242  GLY242      0.1956
     55  C         12.3110   58.6670    4.0060 C.2   242  GLY242      0.2612
     56  O         12.6920   57.5850    4.4670 O.2   242  GLY242     -0.2717
     57  N         11.9380   59.6860    4.7730 N.am  243  HIS243     -0.1961
     58  CA        11.9380   59.5760    6.2200 C.3   243  HIS243      0.1787
     59  C         11.1850   60.7580    6.8130 C.2   243  HIS243      0.2620
     60  O         11.1290   61.8430    6.2220 O.2   243  HIS243     -0.2715
     61  CB        13.3800   59.5390    6.7460 C.3   243  HIS243      0.0785
     62  CG        13.5000   59.0240    8.1460 C.ar  243  HIS243      0.0821
     63  ND1       13.2890   59.8160    9.2550 N.ar  243  HIS243     -0.2267
     64  CD2       13.7890   57.7870    8.6170 C.ar  243  HIS243      0.1154
     65  CE1       13.4470   59.0890   10.3490 C.ar  243  HIS243      0.1986
     66  NE2       13.7500   57.8540    9.9890 N.ar  243  HIS243     -0.2212
     67  N         10.5940   60.5350    7.9800 N.am  244  ARG244     -0.1963
     68  CA         9.8430   61.5730    8.6660 C.3   244  ARG244      0.1729
     69  C         10.7850   62.5990    9.3040 C.2   244  ARG244      0.2616
     70  O         10.4870   63.7950    9.3290 O.2   244  ARG244     -0.2715
     71  CB         8.9530   60.9290    9.7420 C.3   244  ARG244      0.0348
     72  CG         8.2580   61.9030   10.6970 C.3   244  ARG244      0.0492
     73  CD         7.3150   62.8440    9.9700 C.3   244  ARG244      0.2205
     74  NE         6.2770   62.1450    9.2120 N.pl3 244  ARG244     -0.0865
     75  CZ         5.1080   61.7410    9.7060 C.cat 244  ARG244      0.5346
     76  NH1        4.7990   61.9550   10.9830 N.pl3 244  ARG244      0.1354
     77  NH2        4.2330   61.1420    8.9060 N.pl3 244  ARG244      0.1354
     78  N         11.9380   62.1340    9.7830 N.am  245  VAL245     -0.1977
     79  CA        12.8820   63.0120   10.4690 C.3   245  VAL245      0.1596
     80  C         14.1500   63.3930    9.7080 C.2   245  VAL245      0.2287
     81  O         14.5090   64.5680    9.6560 O.2   245  VAL245     -0.2864
     82  CB        13.2860   62.3990   11.8300 C.3   245  VAL245      0.0276
     83  CG1       14.1110   63.3960   12.6290 C.3   245  VAL245      0.0022
     84  CG2       12.0330   61.9840   12.6010 C.3   245  VAL245      0.0022
     85  N         22.7100   55.2990    9.1950 N.3   252  ARG252     -0.1245
     86  CA        22.6970   53.8390    9.2370 C.3   252  ARG252      0.1563
     87  C         22.7570   53.2950    7.8070 C.2   252  ARG252      0.2260
     88  O         23.4030   52.2770    7.5490 O.2   252  ARG252     -0.2867
     89  CB        21.4260   53.3450    9.9290 C.3   252  ARG252      0.0307
     90  CG        21.2290   53.9140   11.3290 C.3   252  ARG252      0.0489
     91  CD        19.8050   53.6830   11.8030 C.3   252  ARG252      0.2205
     92  NE        18.8410   54.2510   10.8630 N.pl3 252  ARG252     -0.0865
     93  CZ        17.5250   54.0950   10.9550 C.cat 252  ARG252      0.5346
     94  NH1       17.0100   53.3880   11.9540 N.pl3 252  ARG252      0.1354
     95  NH2       16.7240   54.6370   10.0450 N.pl3 252  ARG252      0.1354
     96  N         16.9530   55.3560    3.1380 N.3   291  ASN291     -0.1225
     97  CA        16.8190   55.1680    4.5730 C.3   291  ASN291      0.1785
     98  C         17.4280   53.7810    4.7980 C.2   291  ASN291      0.2597
     99  O         17.7280   53.0680    3.8310 O.2   291  ASN291     -0.2718
    100  CB        15.3590   55.2490    5.0560 C.3   291  ASN291      0.1169
    101  CG        14.4560   54.2190    4.4130 C.2   291  ASN291      0.2627
    102  OD1       14.7930   53.0390    4.3240 O.2   291  ASN291     -0.2716
    103  ND2       13.2830   54.6630    3.9790 N.am  291  ASN291     -0.0877
    104  N         17.6250   53.4030    6.0540 N.am  292  VAL292     -0.1966
    105  CA        18.2540   52.1270    6.3790 C.3   292  VAL292      0.1727
    106  C         17.6720   50.8870    5.6970 C.2   292  VAL292      0.2616
    107  O         18.4050   49.9340    5.4240 O.2   292  VAL292     -0.2715
    108  CB        18.2690   51.9040    7.9210 C.3   292  VAL292      0.0290
    109  CG1       16.8830   51.5240    8.4090 C.3   292  VAL292      0.0023
    110  CG2       19.3000   50.8440    8.2920 C.3   292  VAL292      0.0023
    111  N         16.3720   50.8940    5.4100 N.am  293  ASP293     -0.1971
    112  CA        15.7230   49.7360    4.7860 C.3   293  ASP293      0.1709
    113  C         16.2740   49.3590    3.4070 C.2   293  ASP293      0.2293
    114  O         16.2030   48.1960    3.0030 O.2   293  ASP293     -0.2864
    115  CB        14.2100   49.9600    4.6450 C.3   293  ASP293      0.1436
    116  CG        13.5150   50.1940    5.9770 C.2   293  ASP293      0.3671
    117  OD1       13.9470   49.6060    6.9900 O.co2 293  ASP293     -0.2456
    118  OD2       12.5190   50.9530    6.0000 O.co2 293  ASP293     -0.2456
    119  N         15.0460   42.9600   12.0170 N.3   314  PHE314     -0.1241
    120  CA        15.0070   44.3490   12.4550 C.3   314  PHE314      0.1605
    121  C         14.5250   44.3270   13.9120 C.2   314  PHE314      0.2264
    122  O         15.1280   44.9500   14.7910 O.2   314  PHE314     -0.2867
    123  CB        14.0110   45.1210   11.5740 C.3   314  PHE314      0.0534
    124  CG        14.0770   46.6250   11.7130 C.ar  314  PHE314     -0.0203
    125  CD1       14.5180   47.2290   12.8880 C.ar  314  PHE314     -0.0042
    126  CD2       13.6390   47.4410   10.6680 C.ar  314  PHE314     -0.0042
    127  CE1       14.5210   48.6190   13.0220 C.ar  314  PHE314     -0.0003
    128  CE2       13.6380   48.8340   10.7920 C.ar  314  PHE314     -0.0003
    129  CZ        14.0790   49.4230   11.9700 C.ar  314  PHE314     -0.0000
    130  N         15.7050   45.9630   17.3730 N.3   318  ARG318     -0.1245
    131  CA        14.8780   47.0760   17.8710 C.3   318  ARG318      0.1563
    132  C         14.0960   46.7420   19.1620 C.2   318  ARG318      0.2260
    133  O         13.6520   47.6170   19.8940 O.2   318  ARG318     -0.2867
    134  CB        13.9050   47.4790   16.7620 C.3   318  ARG318      0.0307
    135  CG        13.0340   48.6710   17.1570 C.3   318  ARG318      0.0489
    136  CD        13.8710   49.8560   17.6520 C.3   318  ARG318      0.2205
    137  NE        14.7890   50.3130   16.6050 N.pl3 318  ARG318     -0.0865
    138  CZ        14.2790   51.1020   15.6400 C.cat 318  ARG318      0.5346
    139  NH1       13.0020   51.4360   15.6600 N.pl3 318  ARG318      0.1354
    140  NH2       15.0750   51.5490   14.6640 N.pl3 318  ARG318      0.1354
@<TRIPOS>BOND
     1    53    54    1
     2    54    55    1
     3   114   113    2
     4    38    36    1
     5    96    97    1
     6   113   112    1
     7    99    98    2
     8   103   101   am
     9    55    56    2
    10    55    57   am
    11   102   101    2
    12    36    37    1
    13    36    35    1
    14   101   100    1
    15    97    98    1
    16    97   100    1
    17   115   112    1
    18   115   116    1
    19    57    58    1
    20   112   111    1
    21    98   104   am
    22    31    32    1
    23    32    35    1
    24    32    33    1
    25   111   106   am
    26   107   106    2
    27   106   105    1
    28   116   118   ar
    29   116   117   ar
    30   104   105    1
    31    58    61    1
    32    58    59    1
    33    60    59    2
    34   105   108    1
    35    33    34    2
    36    33    39   am
    37    61    62    1
    38    59    67   am
    39    52    51    2
    40    42    41    2
    41    39    40    1
    42    88    87    2
    43    51    50    1
    44    87    86    1
    45   108   110    1
    46   108   109    1
    47    67    68    1
    48    41    40    1
    49    41    49   am
    50    62    64   ar
    51    62    63   ar
    52    40    43    1
    53    64    66   ar
    54    68    69    1
    55    68    71    1
    56    50    49    1
    57    77    75    1
    58    85    86    1
    59    74    75    2
    60    74    73    1
    61    86    89    1
    62    63    65   ar
    63    69    70    2
    64    69    78   am
    65    43    44    1
    66    81    80    2
    67    75    76    1
    68    80    79    1
    69    71    72    1
    70    78    79    1
    71    89    90    1
    72    73    72    1
    73    66    65   ar
    74    95    93    1
    75    79    82    1
    76   126   128   ar
    77   126   124   ar
    78    45    44   ar
    79    45    47   ar
    80   128   129   ar
    81    44    46   ar
    82    92    93    2
    83    92    91    1
    84    93    94    1
    85    90    91    1
    86   123   124    1
    87   123   120    1
    88   124   125   ar
    89    82    84    1
    90    82    83    1
    91   129   127   ar
    92   119   120    1
    93    47    48   ar
    94    46    48   ar
    95    17    15   am
    96   120   121    1
    97   125   127   ar
    98    16    15    2
    99    30    27    1
   100    15    14    1
   101     7     6    1
   102   121   122    2
   103     8     6    1
   104    26    27    1
   105    26    20   am
   106     6     5    1
   107    27    28    1
   108   140   138    1
   109    14    13    1
   110    22    19    1
   111    22    23    1
   112    19    20    1
   113    19    18    1
   114    13    10    1
   115    28    29    2
   116    20    21    2
   117   138   139    1
   118   138   137    2
   119    23    24    2
   120    23    25   am
   121     3     4    2
   122     3     2    1
   123     5     2    1
   124     2     1    1
   125    12    11    2
   126   137   136    1
   127   134   135    1
   128   134   131    1
   129    10    11    1
   130    10     9    1
   131   135   136    1
   132   130   131    1
   133   131   132    1
   134   132   133    2
