@<TRIPOS>MOLECULE
tmp/2p33A00.pdb
 135 125 0 0 0
SMALL
GASTEIGER

@<TRIPOS>ATOM
      1  N         28.0170    7.7530   35.6760 N.3    26  ILE26      -0.1231
      2  CA        27.6040    7.1610   34.4070 C.3    26  ILE26       0.1696
      3  C         27.7380    8.1400   33.2570 C.2    26  ILE26       0.2632
      4  O         27.8050    7.7300   32.0970 O.2    26  ILE26      -0.2714
      5  CB        26.1380    6.6870   34.4430 C.3    26  ILE26       0.0266
      6  CG1       25.2530    7.7750   35.0310 C.3    26  ILE26       0.0019
      7  CG2       26.0010    5.4170   35.2580 C.3    26  ILE26       0.0020
      8  CD1       23.8470    7.2910   35.2730 C.3    26  ILE26       0.0001
      9  N         27.7780    9.4320   33.5780 N.am   27  GLY27      -0.1718
     10  CA        27.8990   10.4450   32.5440 C.2    27  GLY27       0.1480
     11  C         28.0840   11.8650   33.0500 C.2    27  GLY27       0.2821
     12  O         27.9990   12.1380   34.2550 O.2    27  GLY27      -0.2669
     13  N         28.3430   12.7720   32.1100 N.am   28  SER28      -0.1901
     14  CA        28.5480   14.1860   32.4150 C.3    28  SER28       0.2058
     15  C         27.8020   15.0130   31.3780 C.2    28  SER28       0.2643
     16  O         27.7020   14.6170   30.2160 O.2    28  SER28      -0.2714
     17  CB        30.0420   14.5390   32.3710 C.3    28  SER28       0.2130
     18  OG        30.2580   15.8870   32.7670 O.3    28  SER28      -0.2179
     19  N         27.2790   16.1560   31.8010 N.am   29  GLY29      -0.1954
     20  CA        26.5510   17.0090   30.8860 C.3    29  GLY29       0.1869
     21  C         26.7590   18.4760   31.1960 C.2    29  GLY29       0.2309
     22  O         27.7850   18.8610   31.7700 O.2    29  GLY29      -0.2863
     23  N         26.2540   12.9600   36.6270 N.3    34  VAL34      -0.1245
     24  CA        25.1900   11.9960   36.8150 C.3    34  VAL34       0.1561
     25  C         25.7780   10.6740   37.3290 C.2    34  VAL34       0.2260
     26  O         26.8200   10.2260   36.8480 O.2    34  VAL34      -0.2867
     27  CB        24.4300   11.7520   35.4890 C.3    34  VAL34       0.0252
     28  CG1       23.2520   10.8190   35.7280 C.3    34  VAL34       0.0019
     29  CG2       23.9350   13.0740   34.9210 C.3    34  VAL34       0.0019
     30  N         19.1680    6.5090   38.6310 N.3    47  ALA47      -0.1245
     31  CA        20.1500    7.4900   38.2020 C.3    47  ALA47       0.1562
     32  C         19.9830    8.7470   39.0400 C.2    47  ALA47       0.2260
     33  O         18.8530    9.1850   39.2630 O.2    47  ALA47      -0.2867
     34  CB        19.9440    7.8240   36.7530 C.3    47  ALA47       0.0290
     35  N         21.0850   12.7540   39.3380 N.3    49  LYS49      -0.1245
     36  CA        21.6760   13.9200   38.7060 C.3    49  LYS49       0.1561
     37  C         21.7210   15.0540   39.7480 C.2    49  LYS49       0.2260
     38  O         20.7110   15.3720   40.3920 O.2    49  LYS49      -0.2867
     39  CB        20.8090   14.2980   37.5040 C.3    49  LYS49       0.0271
     40  CG        21.2270   15.5420   36.7480 C.3    49  LYS49       0.0035
     41  CD        20.1930   15.8610   35.6630 C.3    49  LYS49       0.0206
     42  CE        20.6000   17.0800   34.8590 C.3    49  LYS49       0.1093
     43  NZ        19.5710   17.5070   33.8690 N.3    49  LYS49      -0.1314
     44  N         11.6590   10.1590   30.2560 N.3    80  ILE80      -0.1245
     45  CA        12.2530    9.7800   31.5290 C.3    80  ILE80       0.1561
     46  C         11.3620   10.2270   32.6860 C.2    80  ILE80       0.2260
     47  O         10.8930   11.3720   32.7340 O.2    80  ILE80      -0.2867
     48  CB        13.6920   10.3940   31.6740 C.3    80  ILE80       0.0252
     49  CG1       14.4860    9.6330   32.7350 C.3    80  ILE80       0.0019
     50  CG2       13.6310   11.8620   32.0540 C.3    80  ILE80       0.0019
     51  CD1       15.0470    8.3250   32.2110 C.3    80  ILE80       0.0001
     52  N         16.0080    9.3170   39.0000 N.3   102  MET102     -0.1230
     53  CA        15.1490    8.8100   37.9440 C.3   102  MET102      0.1702
     54  C         15.4770    7.3720   37.6160 C.2   102  MET102      0.2592
     55  O         16.5150    6.8440   38.0350 O.2   102  MET102     -0.2718
     56  CB        15.3240    9.6610   36.6870 C.3   102  MET102      0.0401
     57  CG        15.1040   11.1390   36.9360 C.3   102  MET102      0.0596
     58  SD        16.3620   12.0700   36.1120 S.3   102  MET102     -0.1393
     59  CE        17.6950   11.8390   37.2490 C.3   102  MET102      0.0692
     60  N         14.5990    6.7400   36.8480 N.am  103  GLU103     -0.1966
     61  CA        14.8470    5.3640   36.4610 C.3   103  GLU103      0.1733
     62  C         16.1970    5.3780   35.7390 C.2   103  GLU103      0.2616
     63  O         16.5540    6.3660   35.0860 O.2   103  GLU103     -0.2715
     64  CB        13.7560    4.8800   35.5200 C.3   103  GLU103      0.0429
     65  CG        13.7650    5.6050   34.2120 C.3   103  GLU103      0.1163
     66  CD        12.4980    5.3660   33.4200 C.2   103  GLU103      0.3649
     67  OE1       12.2220    4.1790   33.0900 O.co2 103  GLU103     -0.2457
     68  OE2       11.7830    6.3670   33.1370 O.co2 103  GLU103     -0.2457
     69  N         16.9370    4.2870   35.8600 N.am  104  LEU104     -0.1963
     70  CA        18.2420    4.1780   35.2460 C.3   104  LEU104      0.1728
     71  C         18.1720    3.5380   33.8740 C.2   104  LEU104      0.2616
     72  O         17.6240    2.4530   33.7040 O.2   104  LEU104     -0.2715
     73  CB        19.1710    3.3290   36.1180 C.3   104  LEU104      0.0311
     74  CG        20.5370    3.0760   35.4740 C.3   104  LEU104      0.0022
     75  CD1       21.3450    4.3970   35.4250 C.3   104  LEU104      0.0001
     76  CD2       21.2730    2.0170   36.2650 C.3   104  LEU104      0.0001
     77  N         18.7540    4.1980   32.8930 N.am  105  MET105     -0.1963
     78  CA        18.7550    3.6490   31.5600 C.3   105  MET105      0.1736
     79  C         20.1590    3.0720   31.2940 C.2   105  MET105      0.2616
     80  O         21.1260    3.3770   32.0110 O.2   105  MET105     -0.2715
     81  CB        18.3710    4.7450   30.5610 C.3   105  MET105      0.0427
     82  CG        16.9540    5.2650   30.7690 C.3   105  MET105      0.0599
     83  SD        15.6870    3.9500   30.6360 S.3   105  MET105     -0.1393
     84  CE        15.5350    3.8880   28.9100 C.3   105  MET105      0.0692
     85  N         20.2710    2.2260   30.2780 N.am  106  ASP106     -0.1957
     86  CA        21.5470    1.5990   29.9770 C.3   106  ASP106      0.1840
     87  C         22.5030    2.4420   29.1680 C.2   106  ASP106      0.2622
     88  O         23.7160    2.3150   29.3290 O.2   106  ASP106     -0.2715
     89  CB        21.3010    0.2630   29.2730 C.3   106  ASP106      0.1450
     90  CG        20.4170   -0.6660   30.0980 C.2   106  ASP106      0.3671
     91  OD1       20.7290   -0.8330   31.3020 O.co2 106  ASP106     -0.2456
     92  OD2       19.4190   -1.2120   29.5570 O.co2 106  ASP106     -0.2456
     93  N         21.9640    3.3120   28.3160 N.am  107  ALA107     -0.1963
     94  CA        22.8200    4.1450   27.4670 C.3   107  ALA107      0.1728
     95  C         22.0650    5.1450   26.5970 C.2   107  ALA107      0.2616
     96  O         20.8490    5.0490   26.4420 O.2   107  ALA107     -0.2715
     97  CB        23.6520    3.2460   26.5760 C.3   107  ALA107      0.0334
     98  N         22.7850    6.1030   26.0160 N.am  108  ASN108     -0.1972
     99  CA        22.1220    7.0670   25.1410 C.3   108  ASN108      0.1688
    100  C         22.3230    6.6810   23.6910 C.2   108  ASN108      0.2292
    101  O         23.0630    5.7350   23.3820 O.2   108  ASN108     -0.2864
    102  CB        22.6170    8.4990   25.3730 C.3   108  ASN108      0.1181
    103  CG        24.1120    8.6500   25.1790 C.2   108  ASN108      0.2629
    104  OD1       24.6830    8.1850   24.1870 O.2   108  ASN108     -0.2716
    105  ND2       24.7520    9.3200   26.1210 N.am  108  ASN108     -0.0877
    106  N         25.6560    5.8430   21.5900 N.3   111  GLN111     -0.1245
    107  CA        26.1940    4.4890   21.6110 C.3   111  GLN111      0.1566
    108  C         25.5430    3.6200   20.5490 C.2   111  GLN111      0.2260
    109  O         26.2140    2.8670   19.8420 O.2   111  GLN111     -0.2867
    110  CB        25.9670    3.8790   22.9910 C.3   111  GLN111      0.0367
    111  CG        26.6520    4.6570   24.0880 C.3   111  GLN111      0.0905
    112  CD        28.1410    4.7590   23.8250 C.2   111  GLN111      0.2608
    113  OE1       28.7990    3.7490   23.5170 O.2   111  GLN111     -0.2717
    114  NE2       28.6860    5.9760   23.9340 N.am  111  GLN111     -0.0878
    115  N         22.5710   12.6130   22.4970 N.3   149  SER149     -0.1217
    116  CA        22.9780   12.6190   23.8920 C.3   149  SER149      0.1889
    117  C         21.8650   12.8810   24.9090 C.2   149  SER149      0.2288
    118  O         22.0720   12.6680   26.1000 O.2   149  SER149     -0.2866
    119  CB        24.1190   13.6180   24.0900 C.3   149  SER149      0.2089
    120  OG        23.7130   14.9190   23.7210 O.3   149  SER149     -0.2183
    121  N         17.9490    8.3040   25.6910 N.3   152  VAL152     -0.1245
    122  CA        18.5500    7.0980   26.2430 C.3   152  VAL152      0.1561
    123  C         17.6740    5.8840   26.0190 C.2   152  VAL152      0.2260
    124  O         16.4480    5.9810   25.8800 O.2   152  VAL152     -0.2867
    125  CB        18.7820    7.2350   27.7380 C.3   152  VAL152      0.0252
    126  CG1       19.9190    8.1870   28.0110 C.3   152  VAL152      0.0019
    127  CG2       17.4960    7.7310   28.4000 C.3   152  VAL152      0.0019
    128  N         15.2150   12.6270   27.4600 N.3   162  LEU162     -0.1245
    129  CA        15.6890   13.1350   28.7510 C.3   162  LEU162      0.1561
    130  C         15.2130   14.4910   29.2170 C.2   162  LEU162      0.2260
    131  O         14.8230   14.6580   30.3650 O.2   162  LEU162     -0.2867
    132  CB        17.2190   13.1750   28.7720 C.3   162  LEU162      0.0270
    133  CG        17.9570   11.8430   28.8010 C.3   162  LEU162      0.0019
    134  CD1       19.4800   12.0900   28.8340 C.3   162  LEU162      0.0001
    135  CD2       17.5210   11.0570   30.0250 C.3   162  LEU162      0.0001
@<TRIPOS>BOND
     1   109   108    2
     2   108   107    1
     3   106   107    1
     4   107   110    1
     5   115   116    1
     6   110   111    1
     7   101   100    2
     8   113   112    2
     9   100    99    1
    10   120   119    1
    11   112   114   am
    12   112   111    1
    13   116   119    1
    14   116   117    1
    15   104   103    2
    16   117   118    2
    17    99   102    1
    18    99    98    1
    19   103   102    1
    20   103   105   am
    21   121   122    1
    22   124   123    2
    23    98    95   am
    24   123   122    1
    25   122   125    1
    26    96    95    2
    27    97    94    1
    28    95    94    1
    29   128   129    1
    30    94    93    1
    31   125   126    1
    32   125   127    1
    33    93    87   am
    34   129   132    1
    35   129   130    1
    36   132   133    1
    37   133   134    1
    38   133   135    1
    39    84    83    1
    40    87    88    2
    41    87    86    1
    42   130   131    2
    43    89    86    1
    44    89    90    1
    45    92    90   ar
    46    86    85    1
    47    90    91   ar
    48    16    15    2
    49    44    45    1
    50    85    79   am
    51    81    82    1
    52    81    78    1
    53    83    82    1
    54    20    21    1
    55    20    19    1
    56    21    22    2
    57    79    78    1
    58    79    80    2
    59    15    19   am
    60    15    14    1
    61    45    48    1
    62    45    46    1
    63    78    77    1
    64    48    50    1
    65    48    49    1
    66     4     3    2
    67    13    14    1
    68    13    11   am
    69    51    49    1
    70    17    14    1
    71    17    18    1
    72    10    11    1
    73    10     9    2
    74    46    47    2
    75    77    71   am
    76    11    12    2
    77    67    66   ar
    78    68    66   ar
    79     3     9    1
    80     3     2    1
    81    66    65    1
    82    72    71    2
    83    43    42    1
    84    71    70    1
    85    65    64    1
    86     2     5    1
    87     2     1    1
    88     5     6    1
    89     5     7    1
    90    42    41    1
    91    29    27    1
    92     6     8    1
    93    63    62    2
    94    70    69    1
    95    70    73    1
    96    75    74    1
    97    74    73    1
    98    74    76    1
    99    27    28    1
   100    27    24    1
   101    64    61    1
   102    41    40    1
   103    62    69   am
   104    62    61    1
   105    58    57    1
   106    58    59    1
   107    61    60    1
   108    23    24    1
   109    56    57    1
   110    56    53    1
   111    40    39    1
   112    34    31    1
   113    24    25    1
   114    60    54   am
   115    26    25    2
   116    39    36    1
   117    54    53    1
   118    54    55    2
   119    53    52    1
   120    31    30    1
   121    31    32    1
   122    36    35    1
   123    36    37    1
   124    32    33    2
   125    37    38    2
