@<TRIPOS>MOLECULE
tmp/2p34B00.pdb
 79 76 0 0 0
SMALL
GASTEIGER

@<TRIPOS>ATOM
      1  N        -12.1430   28.3780   31.3520 N.3    12  TYR12      -0.1241
      2  CA       -12.5760   29.0470   32.5450 C.3    12  TYR12       0.1605
      3  C        -13.8470   28.4140   33.0970 C.2    12  TYR12       0.2264
      4  O        -14.8930   28.4520   32.4370 O.2    12  TYR12      -0.2867
      5  CB       -12.8090   30.5210   32.2680 C.3    12  TYR12       0.0534
      6  CG       -13.0310   31.2790   33.5620 C.ar   12  TYR12      -0.0201
      7  CD1      -14.3140   31.5960   33.9900 C.ar   12  TYR12      -0.0009
      8  CD2      -11.9320   31.6110   34.4040 C.ar   12  TYR12      -0.0009
      9  CE1      -14.5170   32.2660   35.2170 C.ar   12  TYR12       0.0417
     10  CE2      -12.1400   32.3010   35.6280 C.ar   12  TYR12       0.0417
     11  CZ       -13.4310   32.6130   36.0060 C.ar   12  TYR12       0.1957
     12  OH       -13.6680   33.2800   37.1840 O.3    12  TYR12      -0.2866
     13  N        -17.0810   28.2560   34.6820 N.3    14  ASN14      -0.1240
     14  CA       -18.1810   29.0740   35.0790 C.3    14  ASN14       0.1653
     15  C        -19.2210   28.1870   35.7810 C.2    14  ASN14       0.2266
     16  O        -20.2490   27.8740   35.2020 O.2    14  ASN14      -0.2867
     17  CB       -18.7860   29.7510   33.8460 C.3    14  ASN14       0.1155
     18  CG       -17.8040   30.7110   33.1470 C.2    14  ASN14       0.2627
     19  OD1      -17.0930   30.3000   32.2390 O.2    14  ASN14      -0.2716
     20  ND2      -17.7580   31.9850   33.5920 N.am   14  ASN14      -0.0877
     21  N        -13.1550   37.5390   28.9070 N.3    98  GLY98      -0.1210
     22  CA       -14.1330   38.3110   29.6700 C.3    98  GLY98       0.1956
     23  C        -13.3150   39.1250   30.6810 C.2    98  GLY98       0.2612
     24  O        -12.3910   39.7950   30.2960 O.2    98  GLY98      -0.2717
     25  N        -13.5670   38.9500   31.9660 N.am   99  LEU99      -0.1965
     26  CA       -12.7290   39.5500   33.0320 C.3    99  LEU99       0.1728
     27  C        -11.2880   39.0160   32.9950 C.2    99  LEU99       0.2616
     28  O        -10.2980   39.7670   33.1610 O.2    99  LEU99      -0.2715
     29  CB       -13.3720   39.2220   34.3630 C.3    99  LEU99       0.0311
     30  CG       -13.0350   39.9790   35.6690 C.3    99  LEU99       0.0022
     31  CD1      -12.5560   39.0620   36.7530 C.3    99  LEU99       0.0001
     32  CD2      -12.1840   41.1900   35.5160 C.3    99  LEU99       0.0001
     33  N        -11.1800   37.6970   32.8170 N.am  100  TYR100     -0.1974
     34  CA        -9.9160   37.0370   32.5100 C.3   100  TYR100      0.1639
     35  C         -9.7280   36.7740   31.0210 C.2   100  TYR100      0.2290
     36  O        -10.6830   36.8330   30.2080 O.2   100  TYR100     -0.2864
     37  CB        -9.7430   35.7720   33.3660 C.3   100  TYR100      0.0560
     38  CG        -9.9660   36.1050   34.7910 C.ar  100  TYR100     -0.0198
     39  CD1       -9.0560   36.9210   35.4720 C.ar  100  TYR100     -0.0009
     40  CD2      -11.1110   35.6800   35.4570 C.ar  100  TYR100     -0.0009
     41  CE1       -9.2490   37.2610   36.7570 C.ar  100  TYR100      0.0417
     42  CE2      -11.3160   36.0230   36.7440 C.ar  100  TYR100      0.0417
     43  CZ       -10.3890   36.8360   37.3890 C.ar  100  TYR100      0.1957
     44  OH       -10.5680   37.1780   38.6930 O.3   100  TYR100     -0.2866
     45  N         -8.9570   32.5940   30.2790 N.3   204  ALA204     -0.1231
     46  CA       -10.3620   32.5920   29.9420 C.3   204  ALA204      0.1694
     47  C        -10.4800   33.2130   28.5760 C.2   204  ALA204      0.2592
     48  O         -9.5610   33.9440   28.1920 O.2   204  ALA204     -0.2718
     49  CB       -11.1220   33.3810   30.9430 C.3   204  ALA204      0.0304
     50  N        -11.5810   32.9710   27.8250 N.am  205  ASP205     -0.1974
     51  CA       -12.6500   31.9960   28.1690 C.3   205  ASP205      0.1709
     52  C        -12.6340   30.6700   27.4350 C.2   205  ASP205      0.2293
     53  O        -13.1920   29.6630   27.9340 O.2   205  ASP205     -0.2864
     54  CB       -14.0130   32.6170   28.0810 C.3   205  ASP205      0.1436
     55  CG       -14.3480   33.3760   29.3250 C.2   205  ASP205      0.3671
     56  OD1      -14.9150   32.7660   30.2240 O.co2 205  ASP205     -0.2456
     57  OD2      -13.9680   34.5650   29.4220 O.co2 205  ASP205     -0.2456
     58  N        -19.2060   37.7530   24.6750 N.3   223  THR223     -0.1203
     59  CA       -17.8820   37.6690   25.2460 C.3   223  THR223      0.1994
     60  C        -17.8850   36.7120   26.4410 C.2   223  THR223      0.2618
     61  O        -18.9570   36.2840   26.9110 O.2   223  THR223     -0.2717
     62  CB       -17.3250   39.0760   25.7220 C.3   223  THR223      0.1784
     63  OG1      -18.1930   39.6070   26.7240 O.3   223  THR223     -0.2211
     64  CG2      -17.2040   40.0490   24.5810 C.3   223  THR223      0.0376
     65  N        -16.6850   36.3920   26.9470 N.am  224  GLY224     -0.1942
     66  CA       -16.5840   35.6610   28.1650 C.3   224  GLY224      0.2014
     67  C        -17.1700   34.2780   28.0040 C.2   224  GLY224      0.2638
     68  O        -16.9240   33.6040   26.9860 O.2   224  GLY224     -0.2714
     69  N        -17.9700   33.8590   28.9850 N.am  225  ARG225     -0.1977
     70  CA       -18.3250   32.4560   29.1360 C.3   225  ARG225      0.1597
     71  C        -19.1850   31.9020   28.0140 C.2   225  ARG225      0.2287
     72  O        -19.4730   30.6830   28.0060 O.2   225  ARG225     -0.2864
     73  CB       -19.0800   32.2520   30.4600 C.3   225  ARG225      0.0334
     74  CG       -20.3390   33.1050   30.6200 C.3   225  ARG225      0.0492
     75  CD       -20.8240   33.0870   32.0810 C.3   225  ARG225      0.2205
     76  NE       -22.1820   33.6010   32.1930 N.pl3 225  ARG225     -0.0865
     77  CZ       -22.8270   33.7460   33.3620 C.cat 225  ARG225      0.5346
     78  NH1      -22.2290   33.4270   34.5020 N.pl3 225  ARG225      0.1354
     79  NH2      -24.0600   34.2190   33.3960 N.pl3 225  ARG225      0.1354
@<TRIPOS>BOND
     1    64    62    1
     2    58    59    1
     3    59    62    1
     4    59    60    1
     5    62    63    1
     6    60    61    2
     7    60    65   am
     8    65    66    1
     9    68    67    2
    10    52    53    2
    11    52    51    1
    12    50    51    1
    13    50    47   am
    14    67    66    1
    15    67    69   am
    16    72    71    2
    17    71    70    1
    18    54    51    1
    19    54    55    1
    20    48    47    2
    21    47    46    1
    22    21    22    1
    23    69    70    1
    24    70    73    1
    25    55    57   ar
    26    55    56   ar
    27    22    23    1
    28    46    45    1
    29    46    49    1
    30    36    35    2
    31    24    23    2
    32    73    74    1
    33    74    75    1
    34    23    25   am
    35    35    34    1
    36     1     2    1
    37    25    26    1
    38    75    76    1
    39    76    77    2
    40    19    18    2
    41     5     2    1
    42     5     6    1
    43     4     3    2
    44    34    33    1
    45    34    37    1
    46     2     3    1
    47    33    27   am
    48    27    26    1
    49    27    28    2
    50    26    29    1
    51    18    20   am
    52    18    17    1
    53    77    79    1
    54    77    78    1
    55    37    38    1
    56     6     7   ar
    57     6     8   ar
    58    17    14    1
    59     7     9   ar
    60    29    30    1
    61     8    10   ar
    62    13    14    1
    63    38    40   ar
    64    38    39   ar
    65    14    15    1
    66    16    15    2
    67     9    11   ar
    68    40    42   ar
    69    39    41   ar
    70    32    30    1
    71    10    11   ar
    72    30    31    1
    73    11    12    1
    74    42    43   ar
    75    41    43   ar
    76    43    44    1
