@<TRIPOS>MOLECULE
tmp/2p35A00.pdb
 156 153 0 0 0
SMALL
GASTEIGER

@<TRIPOS>ATOM
      1  N        -14.8960   48.4700   17.0410 N.3    15  ALA15      -0.1245
      2  CA       -13.8910   49.4710   16.6800 C.3    15  ALA15       0.1562
      3  C        -14.2260   50.8400   17.2860 C.2    15  ALA15       0.2260
      4  O        -13.3370   51.5190   17.7960 O.2    15  ALA15      -0.2867
      5  CB       -13.7370   49.5890   15.1450 C.3    15  ALA15       0.0290
      6  N         -3.6310   49.2550   12.2700 N.3    33  LEU33      -0.1231
      7  CA        -2.9130   48.0010   12.0170 C.3    33  LEU33       0.1693
      8  C         -3.9170   46.9320   11.6130 C.2    33  LEU33       0.2593
      9  O         -4.9830   46.8300   12.2120 O.2    33  LEU33      -0.2718
     10  CB        -2.1380   47.5700   13.2720 C.3    33  LEU33       0.0284
     11  CG        -1.1840   48.6450   13.8350 C.3    33  LEU33       0.0019
     12  CD1       -0.4200   48.1280   15.0530 C.3    33  LEU33       0.0001
     13  CD2       -0.2070   49.1820   12.7680 C.3    33  LEU33       0.0001
     14  N         -3.5830   46.1430   10.5990 N.am   34  GLY34      -0.1942
     15  CA        -4.5790   45.2630    9.9690 C.3    34  GLY34       0.2014
     16  C         -5.7890   46.0570    9.4950 C.2    34  GLY34       0.2639
     17  O         -6.9290   45.7160    9.8270 O.2    34  GLY34      -0.2714
     18  N         -5.5360   47.1080    8.7140 N.am   35  CYS35      -0.1953
     19  CA        -6.5870   48.0610    8.2700 C.3    35  CYS35       0.1843
     20  C         -7.7090   47.4550    7.4050 C.2    35  CYS35       0.2626
     21  O         -8.8270   47.9860    7.3580 O.2    35  CYS35      -0.2714
     22  CB        -5.9560   49.2540    7.5380 C.3    35  CYS35       0.0997
     23  SG        -5.0570   48.8540    6.0080 S.3    35  CYS35      -0.0797
     24  N         -7.4200   46.3450    6.7330 N.am   36  GLY36      -0.1940
     25  CA        -8.3810   45.7480    5.8170 C.3    36  GLY36       0.1998
     26  C         -8.7740   46.7370    4.7280 C.2    36  GLY36       0.2480
     27  O         -7.9240   47.4950    4.2490 O.2    36  GLY36      -0.2729
     28  N        -10.0690   46.7590    4.3470 N.am   37  PRO37      -0.2726
     29  CA       -10.5600   47.6590    3.2930 C.3    37  PRO37       0.1402
     30  C        -10.8150   49.0930    3.7770 C.2    37  PRO37       0.2269
     31  O        -11.4210   49.8790    3.0540 O.2    37  PRO37      -0.2865
     32  CB       -11.8680   46.9940    2.8510 C.3    37  PRO37       0.0296
     33  CG       -12.3790   46.3430    4.0890 C.3    37  PRO37       0.0237
     34  CD       -11.1510   45.9210    4.8970 C.3    37  PRO37       0.0939
     35  N        -12.3750   50.3690    6.7050 N.3    39  ASN39      -0.1225
     36  CA       -13.4680   50.6720    7.6240 C.3    39  ASN39       0.1785
     37  C        -12.9740   51.1990    8.9630 C.2    39  ASN39       0.2597
     38  O        -13.4470   52.2390    9.4390 O.2    39  ASN39      -0.2718
     39  CB       -14.3390   49.4370    7.8420 C.3    39  ASN39       0.1169
     40  CG       -15.0920   49.0500    6.6020 C.2    39  ASN39       0.2627
     41  OD1      -15.8510   49.8510    6.0590 O.2    39  ASN39      -0.2716
     42  ND2      -14.8920   47.8160    6.1400 N.am   39  ASN39      -0.0877
     43  N        -12.0310   50.4740    9.5720 N.am   40  SER40      -0.1952
     44  CA       -11.4150   50.9440   10.8110 C.3    40  SER40       0.1924
     45  C        -10.6230   52.2280   10.5660 C.2    40  SER40       0.2314
     46  O        -10.6500   53.1430   11.3880 O.2    40  SER40      -0.2863
     47  CB       -10.5580   49.8470   11.4820 C.3    40  SER40       0.2116
     48  OG        -9.6460   49.2240   10.5860 O.3    40  SER40      -0.2180
     49  N         -1.8760   49.8190    7.8070 N.3    56  ILE56      -0.1231
     50  CA        -0.9050   48.7450    7.5850 C.3    56  ILE56       0.1692
     51  C         -1.6660   47.4110    7.4420 C.2    56  ILE56       0.2592
     52  O         -2.5280   47.0940    8.2640 O.2    56  ILE56      -0.2718
     53  CB         0.0860   48.6290    8.7830 C.3    56  ILE56       0.0266
     54  CG1        0.8150   49.9570    9.0680 C.3    56  ILE56       0.0019
     55  CG2        1.0120   47.4090    8.6340 C.3    56  ILE56       0.0020
     56  CD1        1.7820   50.4550    7.9820 C.3    56  ILE56       0.0001
     57  N         -1.3700   46.6580    6.3840 N.am   57  ASP57      -0.1960
     58  CA        -1.9460   45.3260    6.1690 C.3    57  ASP57       0.1840
     59  C         -0.9720   44.4710    5.3450 C.2    57  ASP57       0.2623
     60  O         -0.2090   45.0080    4.5600 O.2    57  ASP57      -0.2715
     61  CB        -3.2970   45.4220    5.4500 C.3    57  ASP57       0.1450
     62  CG        -4.2260   44.2540    5.7820 C.2    57  ASP57       0.3671
     63  OD1       -3.9970   43.1420    5.2840 O.co2  57  ASP57      -0.2456
     64  OD2       -5.1960   44.4460    6.5450 O.co2  57  ASP57      -0.2456
     65  N         -1.0150   43.1500    5.5250 N.am   58  SER58      -0.1936
     66  CA        -0.1880   42.2180    4.7400 C.3    58  SER58       0.2055
     67  C         -0.8580   41.8280    3.4160 C.2    58  SER58       0.2643
     68  O         -0.2710   41.1090    2.5980 O.2    58  SER58      -0.2714
     69  CB         0.1160   40.9570    5.5610 C.3    58  SER58       0.2130
     70  OG        -1.0870   40.3320    5.9680 O.3    58  SER58      -0.2179
     71  N         -2.0910   42.2980    3.2120 N.am   59  ASP59      -0.1971
     72  CA        -2.8570   41.9080    2.0310 C.3    59  ASP59       0.1709
     73  C         -3.0120   43.0600    1.0460 C.2    59  ASP59       0.2293
     74  O         -3.6740   44.0660    1.3420 O.2    59  ASP59      -0.2864
     75  CB        -4.2270   41.3510    2.4320 C.3    59  ASP59       0.1436
     76  CG        -5.0100   40.8070    1.2510 C.2    59  ASP59       0.3671
     77  OD1       -4.6720   41.1050    0.0850 O.co2  59  ASP59      -0.2456
     78  OD2       -5.9770   40.0710    1.4920 O.co2  59  ASP59      -0.2456
     79  N          2.9090   45.3270    5.2410 N.3    77  ALA77      -0.1231
     80  CA         3.8280   44.7230    6.2160 C.3    77  ALA77       0.1694
     81  C          3.1800   43.5580    6.9440 C.2    77  ALA77       0.2592
     82  O          1.9590   43.4450    6.9830 O.2    77  ALA77      -0.2718
     83  CB         4.3030   45.7570    7.2230 C.3    77  ALA77       0.0304
     84  N          4.0060   42.6960    7.5190 N.am   78  ASP78      -0.1960
     85  CA         3.5160   41.6710    8.4180 C.3    78  ASP78       0.1840
     86  C          3.7510   42.1900    9.8200 C.2    78  ASP78       0.2621
     87  O          4.8750   42.5400   10.1790 O.2    78  ASP78      -0.2715
     88  CB         4.2240   40.3230    8.2080 C.3    78  ASP78       0.1450
     89  CG         3.4980   39.1670    8.9170 C.2    78  ASP78       0.3671
     90  OD1        3.3290   39.2100   10.1600 O.co2  78  ASP78      -0.2456
     91  OD2        3.0700   38.2170    8.2230 O.co2  78  ASP78      -0.2456
     92  N          2.6780   42.2470   10.6010 N.am   79  LEU79      -0.1977
     93  CA         2.7250   42.7120   11.9820 C.3    79  LEU79       0.1596
     94  C          3.5850   41.8570   12.9150 C.2    79  LEU79       0.2287
     95  O          3.9240   42.2990   14.0140 O.2    79  LEU79      -0.2864
     96  CB         1.2960   42.8260   12.5560 C.3    79  LEU79       0.0297
     97  CG         0.4020   43.8680   11.8990 C.3    79  LEU79       0.0022
     98  CD1       -1.0440   43.7310   12.4040 C.3    79  LEU79       0.0001
     99  CD2        0.9680   45.3220   12.0790 C.3    79  LEU79       0.0001
    100  N         -7.8310   47.0060   15.3720 N.3    94  ASN94      -0.1225
    101  CA        -9.1090   46.3730   15.6270 C.3    94  ASN94       0.1785
    102  C         -9.2270   45.0630   14.8610 C.2    94  ASN94       0.2597
    103  O         -9.1990   45.0530   13.6210 O.2    94  ASN94      -0.2718
    104  CB       -10.2910   47.2920   15.2520 C.3    94  ASN94       0.1169
    105  CG       -11.5990   46.7050   15.6630 C.2    94  ASN94       0.2627
    106  OD1      -11.9440   46.7210   16.8440 O.2    94  ASN94      -0.2716
    107  ND2      -12.3420   46.1680   14.7020 N.am   94  ASN94      -0.0877
    108  N         -9.3710   43.9760   15.6080 N.am   95  ALA95      -0.1966
    109  CA        -9.5980   42.6300   15.0680 C.3    95  ALA95       0.1728
    110  C         -8.5310   42.1160   14.0740 C.2    95  ALA95       0.2616
    111  O         -8.8620   41.4910   13.0570 O.2    95  ALA95      -0.2715
    112  CB       -11.0470   42.4960   14.4920 C.3    95  ALA95       0.0334
    113  N         -7.2580   42.3570   14.4040 N.am   96  VAL96      -0.1977
    114  CA        -6.1270   41.7780   13.6690 C.3    96  VAL96       0.1596
    115  C         -5.2670   40.8230   14.5080 C.2    96  VAL96       0.2287
    116  O         -4.8690   39.7520   14.0280 O.2    96  VAL96      -0.2864
    117  CB        -5.2430   42.8680   12.9620 C.3    96  VAL96       0.0276
    118  CG1       -4.6720   43.8670   13.9510 C.3    96  VAL96       0.0022
    119  CG2       -4.1020   42.2190   12.1670 C.3    96  VAL96       0.0022
    120  N         -5.4900   38.5990   16.8190 N.3    98  GLN98      -0.1231
    121  CA        -5.8030   37.1660   16.9210 C.3    98  GLN98       0.1698
    122  C         -5.1140   36.3030   15.8240 C.2    98  GLN98       0.2592
    123  O         -4.9980   35.0870   15.9820 O.2    98  GLN98      -0.2718
    124  CB        -7.3300   36.9190   16.9330 C.3    98  GLN98       0.0381
    125  CG        -8.0540   37.1000   15.5880 C.3    98  GLN98       0.0905
    126  CD        -8.3810   38.5600   15.2530 C.2    98  GLN98       0.2608
    127  OE1       -7.9090   39.4860   15.8940 O.2    98  GLN98      -0.2717
    128  NE2       -9.2000   38.7550   14.2480 N.am   98  GLN98      -0.0878
    129  N         -4.6860   36.9350   14.7300 N.am   99  TRP99      -0.1962
    130  CA        -4.0890   36.2240   13.6060 C.3    99  TRP99       0.1771
    131  C         -2.5670   36.2340   13.6450 C.2    99  TRP99       0.2619
    132  O         -1.9160   35.5860   12.8180 O.2    99  TRP99      -0.2715
    133  CB        -4.5850   36.8050   12.2820 C.3    99  TRP99       0.0590
    134  CG        -6.0290   36.5430   12.0270 C.ar   99  TRP99       0.0006
    135  CD1       -6.9880   37.4670   11.7390 C.ar   99  TRP99       0.0946
    136  CD2       -6.6930   35.2660   12.0570 C.ar   99  TRP99       0.0152
    137  NE1       -8.2070   36.8480   11.5740 N.ar   99  TRP99      -0.2442
    138  CE2       -8.0550   35.4990   11.7640 C.ar   99  TRP99       0.0810
    139  CE3       -6.2650   33.9480   12.2930 C.ar   99  TRP99       0.0012
    140  CZ2       -9.0020   34.4610   11.7060 C.ar   99  TRP99       0.0191
    141  CZ3       -7.2040   32.9170   12.2370 C.ar   99  TRP99       0.0001
    142  CH2       -8.5580   33.1830   11.9450 C.ar   99  TRP99       0.0015
    143  N         -2.0090   36.9640   14.6050 N.am  100  VAL100     -0.1964
    144  CA        -0.5610   37.1100   14.7450 C.3   100  VAL100      0.1712
    145  C         -0.0520   36.1890   15.8510 C.2   100  VAL100      0.2458
    146  O         -0.4600   36.3260   17.0050 O.2   100  VAL100     -0.2730
    147  CB        -0.1560   38.5820   15.0610 C.3   100  VAL100      0.0289
    148  CG1        1.3670   38.7370   15.1340 C.3   100  VAL100      0.0023
    149  CG2       -0.7550   39.5440   14.0310 C.3   100  VAL100      0.0023
    150  N          0.8320   35.2380   15.4920 N.am  101  PRO101     -0.2727
    151  CA         1.4830   34.3300   16.4420 C.3   101  PRO101      0.1402
    152  C          2.1060   35.1020   17.5970 C.2   101  PRO101      0.2269
    153  O          2.7080   36.1650   17.3710 O.2   101  PRO101     -0.2865
    154  CB         2.5920   33.6720   15.6020 C.3   101  PRO101      0.0296
    155  CG         2.1110   33.7650   14.1920 C.3   101  PRO101      0.0237
    156  CD         1.2330   34.9800   14.0960 C.3   101  PRO101      0.0939
@<TRIPOS>BOND
     1    77    76   ar
     2    73    74    2
     3    73    72    1
     4    76    78   ar
     5    76    75    1
     6    72    75    1
     7    72    71    1
     8    68    67    2
     9    32    29    1
    10    32    33    1
    11    31    30    2
    12    71    67   am
    13    29    30    1
    14    29    28    1
    15    67    66    1
    16    33    34    1
    17    27    26    2
    18    28    26   am
    19    28    34    1
    20    60    59    2
    21    26    25    1
    22    66    65    1
    23    66    69    1
    24    79    80    1
    25    63    62   ar
    26    59    65   am
    27    59    58    1
    28    61    62    1
    29    61    58    1
    30    69    70    1
    31    62    64   ar
    32    25    24    1
    33    23    22    1
    34    41    40    2
    35    42    40   am
    36    58    57    1
    37    80    81    1
    38    80    83    1
    39    57    51   am
    40    40    39    1
    41    35    36    1
    42    24    20   am
    43    81    82    2
    44    81    84   am
    45    21    20    2
    46    20    19    1
    47    51    50    1
    48    51    52    2
    49    84    85    1
    50    22    19    1
    51    50    49    1
    52    50    53    1
    53    36    39    1
    54    36    37    1
    55    56    54    1
    56    88    85    1
    57    88    89    1
    58    91    89   ar
    59    19    18    1
    60    85    86    1
    61    55    53    1
    62    18    16   am
    63    53    54    1
    64    89    90   ar
    65    37    38    2
    66    37    43   am
    67    16    17    2
    68    16    15    1
    69    43    44    1
    70    86    87    2
    71    86    92   am
    72    15    14    1
    73    45    44    1
    74    45    46    2
    75    48    47    1
    76    14     8   am
    77    92    93    1
    78    44    47    1
    79   137   135   ar
    80   137   138   ar
    81     8     7    1
    82     8     9    2
    83   140   138   ar
    84   140   142   ar
    85   135   134   ar
    86   138   136   ar
    87    97    99    1
    88    97    98    1
    89    97    96    1
    90   142   141   ar
    91    93    96    1
    92    93    94    1
    93     7     6    1
    94     7    10    1
    95   134   136   ar
    96   134   133    1
    97   136   139   ar
    98   119   117    1
    99   141   139   ar
   100   133   130    1
   101    13    11    1
   102   132   131    2
   103    94    95    2
   104   117   114    1
   105   117   118    1
   106   111   110    2
   107    10    11    1
   108   130   131    1
   109   130   129    1
   110   103   102    2
   111   131   143   am
   112   114   113    1
   113   114   115    1
   114    11    12    1
   115   116   115    2
   116   149   147    1
   117   110   113   am
   118   110   109    1
   119   156   155    1
   120   156   150    1
   121   155   154    1
   122   128   126   am
   123   112   109    1
   124   143   144    1
   125   107   105   am
   126   129   122   am
   127   144   147    1
   128   144   145    1
   129   102   108   am
   130   102   101    1
   131   147   148    1
   132   109   108    1
   133     5     2    1
   134   104   101    1
   135   104   105    1
   136   126   125    1
   137   126   127    2
   138   100   101    1
   139   150   145   am
   140   150   151    1
   141   125   124    1
   142   154   151    1
   143   105   106    2
   144   122   123    2
   145   122   121    1
   146   145   146    2
   147   151   152    1
   148     2     1    1
   149     2     3    1
   150   120   121    1
   151   121   124    1
   152     3     4    2
   153   153   152    2
