@<TRIPOS>MOLECULE
tmp/2p39A00.pdb
 100 99 0 0 0
SMALL
GASTEIGER

@<TRIPOS>ATOM
      1  N         10.9450   24.6310   22.3800 N.3    18  THR18      -0.1203
      2  CA        10.5010   25.5120   23.4570 C.3    18  THR18       0.1994
      3  C          9.3940   24.9610   24.3490 C.2    18  THR18       0.2618
      4  O          8.9630   25.6270   25.2910 O.2    18  THR18      -0.2717
      5  CB        10.0560   26.8880   22.9010 C.3    18  THR18       0.1784
      6  OG1        9.0090   26.7100   21.9400 O.3    18  THR18      -0.2211
      7  CG2       11.2280   27.5960   22.2410 C.3    18  THR18       0.0376
      8  N          8.9310   23.7500   24.0610 N.am   19  ALA19      -0.1965
      9  CA         7.8860   23.1330   24.8720 C.3    19  ALA19       0.1728
     10  C          8.4750   22.6760   26.2080 C.2    19  ALA19       0.2616
     11  O          9.6860   22.4970   26.3250 O.2    19  ALA19      -0.2715
     12  CB         7.2870   21.9430   24.1320 C.3    19  ALA19       0.0334
     13  N          7.6220   22.5000   27.2160 N.am   20  ARG20      -0.1963
     14  CA         8.0870   22.0360   28.5230 C.3    20  ARG20       0.1729
     15  C          8.7120   20.6550   28.3210 C.2    20  ARG20       0.2616
     16  O          9.7530   20.3360   28.8970 O.2    20  ARG20      -0.2715
     17  CB         6.9180   21.9400   29.5060 C.3    20  ARG20       0.0348
     18  CG         6.2230   23.2620   29.7940 C.3    20  ARG20       0.0492
     19  CD         7.0160   24.1650   30.7140 C.3    20  ARG20       0.2205
     20  NE         6.3620   25.4620   30.8870 N.pl3  20  ARG20      -0.0865
     21  CZ         5.1680   25.6400   31.4470 C.cat  20  ARG20       0.5346
     22  NH1        4.4770   24.6050   31.9030 N.pl3  20  ARG20       0.1354
     23  NH2        4.6580   26.8620   31.5460 N.pl3  20  ARG20       0.1354
     24  N          8.0560   19.8400   27.5000 N.am   21  ASN21      -0.1972
     25  CA         8.5420   18.5050   27.1680 C.3    21  ASN21       0.1688
     26  C          8.7970   18.5500   25.6650 C.2    21  ASN21       0.2292
     27  O          7.8640   18.6670   24.8750 O.2    21  ASN21      -0.2864
     28  CB         7.4860   17.4520   27.5080 C.3    21  ASN21       0.1181
     29  CG         7.2070   17.3680   28.9980 C.2    21  ASN21       0.2629
     30  OD1        8.0610   16.9480   29.7780 O.2    21  ASN21      -0.2716
     31  ND2        6.0120   17.7760   29.3990 N.am   21  ASN21      -0.0877
     32  N         10.0500   17.1350   21.9560 N.3    23  TYR23      -0.1241
     33  CA        10.1040   15.9000   21.1800 C.3    23  TYR23       0.1605
     34  C         10.2290   16.1640   19.6910 C.2    23  TYR23       0.2264
     35  O         10.0210   17.2840   19.2170 O.2    23  TYR23      -0.2867
     36  CB         8.8330   15.0650   21.3710 C.3    23  TYR23       0.0534
     37  CG         8.4210   14.7910   22.7980 C.ar   23  TYR23      -0.0201
     38  CD1        7.3740   15.4990   23.3880 C.ar   23  TYR23      -0.0009
     39  CD2        9.0400   13.7870   23.5400 C.ar   23  TYR23      -0.0009
     40  CE1        6.9470   15.2080   24.6840 C.ar   23  TYR23       0.0417
     41  CE2        8.6230   13.4870   24.8370 C.ar   23  TYR23       0.0417
     42  CZ         7.5750   14.1970   25.4010 C.ar   23  TYR23       0.1957
     43  OH         7.1370   13.8680   26.6670 O.3    23  TYR23      -0.2866
     44  N          0.4380   17.4610   21.1110 N.3   111  GLY111     -0.1210
     45  CA        -0.5110   17.1110   22.1540 C.3   111  GLY111      0.1956
     46  C         -1.9810   17.3440   21.8710 C.2   111  GLY111      0.2612
     47  O         -2.3710   17.6650   20.7530 O.2   111  GLY111     -0.2717
     48  N         -2.7990   17.2000   22.9100 N.am  112  ARG112     -0.1965
     49  CA        -4.2420   17.3760   22.7820 C.3   112  ARG112      0.1729
     50  C         -4.6860   18.8350   22.7260 C.2   112  ARG112      0.2616
     51  O         -5.7510   19.1400   22.1930 O.2   112  ARG112     -0.2715
     52  CB        -4.9590   16.6720   23.9390 C.3   112  ARG112      0.0348
     53  CG        -4.5720   17.1990   25.3060 C.3   112  ARG112      0.0492
     54  CD        -5.3480   16.5170   26.4230 C.3   112  ARG112      0.2205
     55  NE        -4.8780   16.9600   27.7320 N.pl3 112  ARG112     -0.0865
     56  CZ        -5.4860   16.6880   28.8820 C.cat 112  ARG112      0.5346
     57  NH1       -6.6010   15.9690   28.8950 N.pl3 112  ARG112      0.1354
     58  NH2       -4.9780   17.1390   30.0210 N.pl3 112  ARG112      0.1354
     59  N         -3.8790   19.7350   23.2770 N.am  113  ALA113     -0.1977
     60  CA        -4.2290   21.1520   23.2720 C.3   113  ALA113      0.1597
     61  C         -3.9850   21.7250   21.8820 C.2   113  ALA113      0.2287
     62  O         -2.8390   21.8850   21.4620 O.2   113  ALA113     -0.2864
     63  CB        -3.4020   21.9030   24.3110 C.3   113  ALA113      0.0319
     64  N         -4.3860   24.8160   19.1700 N.3   115  ARG115     -0.1245
     65  CA        -4.5250   26.2650   19.1190 C.3   115  ARG115      0.1563
     66  C         -4.4720   26.7880   17.6960 C.2   115  ARG115      0.2260
     67  O         -3.6550   26.3410   16.8930 O.2   115  ARG115     -0.2867
     68  CB        -3.4060   26.9210   19.9320 C.3   115  ARG115      0.0307
     69  CG        -3.6320   28.3940   20.2270 C.3   115  ARG115      0.0489
     70  CD        -4.9110   28.5670   21.0260 C.3   115  ARG115      0.2205
     71  NE        -4.9170   27.6940   22.1970 N.pl3 115  ARG115     -0.0865
     72  CZ        -6.0150   27.2970   22.8330 C.cat 115  ARG115      0.5346
     73  NH1       -7.2110   27.6920   22.4130 N.pl3 115  ARG115      0.1354
     74  NH2       -5.9170   26.4990   23.8870 N.pl3 115  ARG115      0.1354
     75  N          1.5610   29.4420   21.1670 N.3   124  PRO124     -0.2103
     76  CA         2.1480   28.9000   22.3960 C.3   124  PRO124      0.1489
     77  C          3.4770   28.1910   22.1370 C.2   124  PRO124      0.2418
     78  O          3.7220   27.6940   21.0380 O.2   124  PRO124     -0.2734
     79  CB         1.0620   27.9540   22.9060 C.3   124  PRO124      0.0282
     80  CG         0.4530   27.4490   21.6450 C.3   124  PRO124      0.0208
     81  CD         0.3420   28.7030   20.7930 C.3   124  PRO124      0.0893
     82  N          4.3540   28.1390   23.1500 N.am  125  PRO125     -0.2718
     83  CA         5.6530   27.4800   22.9900 C.3   125  PRO125      0.1535
     84  C          5.5940   26.0460   22.4660 C.2   125  PRO125      0.2598
     85  O          6.4520   25.6340   21.6880 O.2   125  PRO125     -0.2715
     86  CB         6.2510   27.5560   24.3900 C.3   125  PRO125      0.0310
     87  CG         5.7010   28.8460   24.9150 C.3   125  PRO125      0.0237
     88  CD         4.2530   28.7900   24.4690 C.3   125  PRO125      0.0939
     89  N          4.5820   25.2870   22.8720 N.am  126  TYR126     -0.1974
     90  CA         4.4880   23.8980   22.4350 C.3   126  TYR126      0.1639
     91  C          4.2100   23.7200   20.9430 C.2   126  TYR126      0.2290
     92  O          4.2900   22.6050   20.4290 O.2   126  TYR126     -0.2864
     93  CB         3.4430   23.1350   23.2710 C.3   126  TYR126      0.0560
     94  CG         1.9990   23.5600   23.0830 C.ar  126  TYR126     -0.0198
     95  CD1        1.3180   23.2990   21.8920 C.ar  126  TYR126     -0.0009
     96  CD2        1.3050   24.2030   24.1070 C.ar  126  TYR126     -0.0009
     97  CE1       -0.0150   23.6660   21.7280 C.ar  126  TYR126      0.0417
     98  CE2       -0.0300   24.5730   23.9530 C.ar  126  TYR126      0.0417
     99  CZ        -0.6840   24.3020   22.7630 C.ar  126  TYR126      0.1957
    100  OH        -2.0010   24.6600   22.6040 O.3   126  TYR126     -0.2866
@<TRIPOS>BOND
     1    67    66    2
     2    66    65    1
     3    65    64    1
     4    65    68    1
     5    35    34    2
     6    34    33    1
     7    68    69    1
     8    69    70    1
     9    92    91    2
    10    47    46    2
    11    81    75    1
    12    81    80    1
    13    91    90    1
    14    70    71    1
    15    78    77    2
    16    44    45    1
    17    75    76    1
    18    33    36    1
    19    33    32    1
    20    36    37    1
    21    62    61    2
    22    80    79    1
    23    85    84    2
    24    97    95   ar
    25    97    99   ar
    26    46    45    1
    27    46    48   am
    28    61    60    1
    29    95    94   ar
    30     6     5    1
    31    77    76    1
    32    77    82   am
    33    51    50    2
    34    71    72    2
    35     7     5    1
    36     1     2    1
    37    76    79    1
    38    73    72    1
    39    90    89    1
    40    90    93    1
    41    84    89   am
    42    84    83    1
    43   100    99    1
    44    50    49    1
    45    50    59   am
    46    99    98   ar
    47    49    48    1
    48    49    52    1
    49    37    38   ar
    50    37    39   ar
    51    72    74    1
    52     5     2    1
    53    83    82    1
    54    83    86    1
    55    94    93    1
    56    94    96   ar
    57    82    88    1
    58    60    59    1
    59    60    63    1
    60    38    40   ar
    61     2     3    1
    62    39    41   ar
    63    52    53    1
    64    98    96   ar
    65     8     3   am
    66     8     9    1
    67    12     9    1
    68     3     4    2
    69    86    87    1
    70    88    87    1
    71    40    42   ar
    72    41    42   ar
    73     9    10    1
    74    27    26    2
    75    53    54    1
    76    42    43    1
    77    26    25    1
    78    10    11    2
    79    10    13   am
    80    54    55    1
    81    25    24    1
    82    25    28    1
    83    13    14    1
    84    24    15   am
    85    28    29    1
    86    55    56    2
    87    15    14    1
    88    15    16    2
    89    14    17    1
    90    56    57    1
    91    56    58    1
    92    29    31   am
    93    29    30    2
    94    17    18    1
    95    18    19    1
    96    19    20    1
    97    20    21    2
    98    21    23    1
    99    21    22    1
