@<TRIPOS>MOLECULE
tmp/2p3bA00.pdb
 129 122 0 0 0
SMALL
GASTEIGER

@<TRIPOS>ATOM
      1  N         27.2470   -8.8290   -5.6170 N.3     8  ARG8       -0.1245
      2  CA        26.7640   -8.3920   -4.3070 C.3     8  ARG8        0.1563
      3  C         27.8030   -8.8000   -3.2740 C.2     8  ARG8        0.2260
      4  O         28.2870   -9.9440   -3.3030 O.2     8  ARG8       -0.2867
      5  CB        25.4180   -9.0270   -3.9650 C.3     8  ARG8        0.0307
      6  CG        24.2420   -8.3130   -4.5810 C.3     8  ARG8        0.0489
      7  CD        22.8850   -8.9590   -4.3420 C.3     8  ARG8        0.2205
      8  NE        21.8790   -8.3680   -5.2650 N.pl3   8  ARG8       -0.0865
      9  CZ        20.6090   -8.8030   -5.4170 C.cat   8  ARG8        0.5346
     10  NH1       20.1580   -9.8360   -4.7030 N.pl3   8  ARG8        0.1354
     11  NH2       19.7850   -8.2290   -6.2830 N.pl3   8  ARG8        0.1354
     12  N         24.6680   -9.1050    3.4200 N.3    23  LEU23      -0.1245
     13  CA        25.2020   -8.0960    2.5350 C.3    23  LEU23       0.1561
     14  C         25.9110   -6.9870    3.3370 C.2    23  LEU23       0.2260
     15  O         25.3670   -6.4670    4.3400 O.2    23  LEU23      -0.2867
     16  CB        24.0140   -7.5430    1.7450 C.3    23  LEU23       0.0270
     17  CG        24.0910   -6.4910    0.6330 C.3    23  LEU23       0.0019
     18  CD1       24.7090   -7.0960   -0.5700 C.3    23  LEU23       0.0001
     19  CD2       22.6470   -6.1260    0.3300 C.3    23  LEU23       0.0001
     20  N         26.6040   -3.4080    3.6530 N.3    25  ASP25      -0.1239
     21  CA        25.7690   -2.4110    3.0100 C.3    25  ASP25       0.1674
     22  C         26.0850   -1.0020    3.5330 C.2    25  ASP25       0.2266
     23  O         25.6570   -0.6270    4.6270 O.2    25  ASP25      -0.2867
     24  CB        24.3080   -2.8160    3.2250 C.3    25  ASP25       0.1410
     25  CG        23.3330   -1.8960    2.5700 C.2    25  ASP25       0.3668
     26  OD1       23.7190   -0.9310    1.8820 O.co2  25  ASP25      -0.2456
     27  OD2       22.1060   -2.0760    2.6870 O.co2  25  ASP25      -0.2456
     28  N         24.9410    1.7560    2.4510 N.3    27  GLY27      -0.1210
     29  CA        23.7010    2.5660    2.4230 C.3    27  GLY27       0.1956
     30  C         22.7340    2.3010    3.5710 C.2    27  GLY27       0.2612
     31  O         21.6470    2.8920    3.6140 O.2    27  GLY27      -0.2717
     32  N         23.0950    1.4020    4.4850 N.am   28  ALA28      -0.1965
     33  CA        22.2550    1.1110    5.6250 C.3    28  ALA28       0.1728
     34  C         22.8090    1.7440    6.9100 C.2    28  ALA28       0.2616
     35  O         23.9410    1.4650    7.2920 O.2    28  ALA28      -0.2715
     36  CB        22.0850   -0.4490    5.8090 C.3    28  ALA28       0.0334
     37  N         22.0050    2.5720    7.5880 N.am   29  ASP29      -0.1957
     38  CA        22.3740    3.1030    8.9090 C.3    29  ASP29       0.1840
     39  C         22.5030    1.9450    9.9020 C.2    29  ASP29       0.2622
     40  O         23.4370    1.9310   10.6900 O.2    29  ASP29      -0.2715
     41  CB        21.3060    4.0730    9.4690 C.3    29  ASP29       0.1450
     42  CG        21.0650    5.2690    8.5740 C.2    29  ASP29       0.3671
     43  OD1       21.9420    5.6350    7.7520 O.co2  29  ASP29      -0.2456
     44  OD2       20.0020    5.8970    8.6120 O.co2  29  ASP29      -0.2456
     45  N         21.5740    0.9890    9.8380 N.am   30  ASP30      -0.1971
     46  CA        21.4330   -0.0790   10.8150 C.3    30  ASP30       0.1709
     47  C         21.6350   -1.4610   10.2130 C.2    30  ASP30       0.2293
     48  O         21.6720   -1.6470    8.9820 O.2    30  ASP30      -0.2864
     49  CB        20.0270   -0.0360   11.4310 C.3    30  ASP30       0.1436
     50  CG        19.7150    1.3000   12.1160 C.2    30  ASP30       0.3671
     51  OD1       20.5100    1.7620   12.9550 O.co2  30  ASP30      -0.2456
     52  OD2       18.6850    1.9560   11.8740 O.co2  30  ASP30      -0.2456
     53  N         20.0820   -5.1410    9.7590 N.3    32  VAL32      -0.1245
     54  CA        18.7310   -5.7080    9.6950 C.3    32  VAL32       0.1561
     55  C         18.8020   -7.1430    9.1750 C.2    32  VAL32       0.2260
     56  O         19.2960   -7.4040    8.0630 O.2    32  VAL32      -0.2867
     57  CB        17.7230   -4.9200    8.7710 C.3    32  VAL32       0.0252
     58  CG1       16.2840   -5.3120    9.1260 C.3    32  VAL32       0.0019
     59  CG2       17.8870   -3.4040    8.8440 C.3    32  VAL32       0.0019
     60  N         10.6720   -0.7990   16.6860 N.3    45  LYS45      -0.1231
     61  CA        11.3270    0.2620   15.9370 C.3    45  LYS45       0.1693
     62  C         10.8040    0.2330   14.5060 C.2    45  LYS45       0.2592
     63  O         10.3640   -0.8030   14.0350 O.2    45  LYS45      -0.2718
     64  CB        12.8500    0.0850   15.9670 C.3    45  LYS45       0.0285
     65  CG        13.6200    1.2010   15.2640 C.3    45  LYS45       0.0035
     66  CD        15.1220    0.9650   15.2510 C.3    45  LYS45       0.0206
     67  CE        15.8900    1.9550   14.3520 C.3    45  LYS45       0.1093
     68  NZ        15.6660    3.3840   14.7000 N.3    45  LYS45      -0.1314
     69  N         10.8320    1.3730   13.8250 N.am   46  MET46      -0.1965
     70  CA        10.4490    1.4520   12.4080 C.3    46  MET46       0.1736
     71  C         11.6730    1.8580   11.5880 C.2    46  MET46       0.2616
     72  O         12.4600    2.6920   12.0230 O.2    46  MET46      -0.2715
     73  CB         9.3120    2.4590   12.2160 C.3    46  MET46       0.0427
     74  CG         8.0170    2.1260   13.0000 C.3    46  MET46       0.0599
     75  SD         6.7230    1.3710   11.9640 S.3    46  MET46      -0.1393
     76  CE         5.2810    1.4500   13.0630 C.3    46  MET46       0.0692
     77  N         11.8640    1.2460   10.4250 N.am   47  ILE47      -0.1963
     78  CA        12.9150    1.6860    9.5210 C.3    47  ILE47       0.1727
     79  C         12.3640    1.9270    8.1460 C.2    47  ILE47       0.2617
     80  O         11.4380    1.2710    7.7110 O.2    47  ILE47      -0.2715
     81  CB        14.0950    0.6880    9.4340 C.3    47  ILE47       0.0290
     82  CG1       13.5950   -0.7350    9.2050 C.3    47  ILE47       0.0022
     83  CG2       14.9650    0.7770   10.6680 C.3    47  ILE47       0.0023
     84  CD1       14.5450   -1.5840    8.3780 C.3    47  ILE47       0.0001
     85  N         12.9690    2.8500    7.4280 N.am   48  GLY48      -0.1940
     86  CA        12.4810    3.1610    6.0920 C.3    48  GLY48       0.2014
     87  C         13.4590    2.8420    4.9980 C.2    48  GLY48       0.2639
     88  O         14.6840    2.7380    5.2210 O.2    48  GLY48      -0.2714
     89  N         12.9080    2.6820    3.8070 N.am   49  GLY49      -0.1939
     90  CA        13.7070    2.4690    2.6140 C.3    49  GLY49       0.2014
     91  C         12.9490    2.8360    1.3540 C.2    49  GLY49       0.2638
     92  O         11.9530    3.5670    1.4010 O.2    49  GLY49      -0.2714
     93  N         13.4140    2.3130    0.2290 N.am   50  ILE50      -0.1977
     94  CA        12.7150    2.4620   -1.0340 C.3    50  ILE50       0.1596
     95  C         11.3270    1.7680   -0.9360 C.2    50  ILE50       0.2287
     96  O         11.2000    0.6400   -0.4540 O.2    50  ILE50      -0.2864
     97  CB        13.6020    1.9170   -2.1870 C.3    50  ILE50       0.0276
     98  CG1       13.9150    3.0250   -3.1870 C.3    50  ILE50       0.0022
     99  CG2       12.9550    0.7480   -2.9070 C.3    50  ILE50       0.0022
    100  CD1       15.3120    3.5540   -3.1200 C.3    50  ILE50       0.0001
    101  N         12.8330   -8.5900    6.2130 N.3    80  THR80      -0.1204
    102  CA        13.6990   -8.0900    5.1410 C.3    80  THR80       0.1979
    103  C         13.9770   -9.2950    4.2610 C.2    80  THR80       0.2460
    104  O         13.9880  -10.4000    4.7360 O.2    80  THR80      -0.2732
    105  CB        14.9740   -7.4040    5.7340 C.3    80  THR80       0.1783
    106  OG1       15.8910   -7.0870    4.6820 O.3    80  THR80      -0.2211
    107  CG2       15.7550   -8.3540    6.6170 C.3    80  THR80       0.0376
    108  N         14.0800   -9.1190    2.9570 N.am   81  PRO81      -0.2717
    109  CA        14.3690  -10.2650    2.0700 C.3    81  PRO81       0.1535
    110  C         15.8420  -10.7100    2.0590 C.2    81  PRO81       0.2598
    111  O         16.1770  -11.7450    1.4700 O.2    81  PRO81      -0.2715
    112  CB        13.9730   -9.7450    0.6730 C.3    81  PRO81       0.0310
    113  CG        13.8730   -8.2720    0.7660 C.3    81  PRO81       0.0237
    114  CD        13.8510   -7.8600    2.2240 C.3    81  PRO81       0.0939
    115  N         16.7170   -9.9220    2.6830 N.am   82  VAL82      -0.1978
    116  CA        18.1340  -10.1720    2.6580 C.3    82  VAL82       0.1596
    117  C         18.6730   -9.6440    3.9780 C.2    82  VAL82       0.2287
    118  O         18.1550   -8.6770    4.5220 O.2    82  VAL82      -0.2864
    119  CB        18.7970   -9.5400    1.3790 C.3    82  VAL82       0.0276
    120  CG1       18.7150   -8.0400    1.4070 C.3    82  VAL82       0.0022
    121  CG2       20.2600  -10.0220    1.1620 C.3    82  VAL82       0.0022
    122  N         21.1470   -7.7140    6.2060 N.3    84  ILE84      -0.1245
    123  CA        21.9010   -6.4790    5.9780 C.3    84  ILE84       0.1561
    124  C         22.8560   -6.2210    7.1300 C.2    84  ILE84       0.2260
    125  O         22.4370   -6.1220    8.2950 O.2    84  ILE84      -0.2867
    126  CB        20.9250   -5.2500    5.8400 C.3    84  ILE84       0.0252
    127  CG1       19.9810   -5.4080    4.6480 C.3    84  ILE84       0.0019
    128  CG2       21.7130   -3.9330    5.7310 C.3    84  ILE84       0.0019
    129  CD1       20.6930   -5.5550    3.3370 C.3    84  ILE84       0.0001
@<TRIPOS>BOND
     1    11     9    1
     2     1     2    1
     3     9     8    2
     4     9    10    1
     5     8     7    1
     6     6     7    1
     7     6     5    1
     8     2     5    1
     9     2     3    1
    10     4     3    2
    11    98   100    1
    12    98    97    1
    13    99    97    1
    14    97    94    1
    15    94    95    1
    16    94    93    1
    17    95    96    2
    18    18    17    1
    19    93    91   am
    20    19    17    1
    21    17    16    1
    22   112   113    1
    23   112   109    1
    24   113   114    1
    25   121   119    1
    26    91    92    2
    27    91    90    1
    28   119   120    1
    29   119   116    1
    30   111   110    2
    31    16    13    1
    32    26    25   ar
    33   110   109    1
    34   110   115   am
    35   109   108    1
    36   114   108    1
    37    29    28    1
    38    29    30    1
    39    13    14    1
    40    13    12    1
    41    25    27   ar
    42    25    24    1
    43    90    89    1
    44   116   115    1
    45   116   117    1
    46   108   103   am
    47    21    24    1
    48    21    22    1
    49    21    20    1
    50   129   127    1
    51    14    15    2
    52    22    23    2
    53    30    31    2
    54    30    32   am
    55    89    87   am
    56   117   118    2
    57   103   104    2
    58   103   102    1
    59    32    33    1
    60   127   126    1
    61   106   105    1
    62    87    88    2
    63    87    86    1
    64   102   105    1
    65   102   101    1
    66    33    36    1
    67    33    34    1
    68   128   126    1
    69   105   107    1
    70   126   123    1
    71   123   122    1
    72   123   124    1
    73    86    85    1
    74    34    35    2
    75    34    37   am
    76   124   125    2
    77    85    79   am
    78    37    38    1
    79    80    79    2
    80    43    42   ar
    81    56    55    2
    82    79    78    1
    83    84    82    1
    84    42    44   ar
    85    42    41    1
    86    57    59    1
    87    57    58    1
    88    57    54    1
    89    38    41    1
    90    38    39    1
    91    48    47    2
    92    55    54    1
    93    82    81    1
    94    81    78    1
    95    81    83    1
    96    78    77    1
    97    54    53    1
    98    45    39   am
    99    45    46    1
   100    39    40    2
   101    47    46    1
   102    77    71   am
   103    46    49    1
   104    49    50    1
   105    71    72    2
   106    71    70    1
   107    52    50   ar
   108    75    74    1
   109    75    76    1
   110    50    51   ar
   111    73    70    1
   112    73    74    1
   113    70    69    1
   114    69    62   am
   115    63    62    2
   116    67    68    1
   117    67    66    1
   118    62    61    1
   119    66    65    1
   120    65    64    1
   121    61    64    1
   122    61    60    1
