@<TRIPOS>MOLECULE
tmp/2p3dB00.pdb
 127 120 0 0 0
SMALL
GASTEIGER

@<TRIPOS>ATOM
      1  N         20.5900  -18.2950    6.0590 N.3     8  ARG8       -0.1245
      2  CA        19.8930  -18.1610    4.7960 C.3     8  ARG8        0.1563
      3  C         20.7470  -18.9030    3.7930 C.2     8  ARG8        0.2260
      4  O         21.9670  -18.7220    3.8420 O.2     8  ARG8       -0.2867
      5  CB        19.7830  -16.7000    4.3850 C.3     8  ARG8        0.0307
      6  CG        18.7860  -15.8940    5.1760 C.3     8  ARG8        0.0489
      7  CD        18.9220  -14.4280    4.8690 C.3     8  ARG8        0.2205
      8  NE        17.7470  -13.6150    5.1620 N.pl3   8  ARG8       -0.0865
      9  CZ        17.6150  -12.8610    6.2560 C.cat   8  ARG8        0.5346
     10  NH1       18.5920  -12.8490    7.1740 N.pl3   8  ARG8        0.1354
     11  NH2       16.5030  -12.1290    6.4440 N.pl3   8  ARG8        0.1354
     12  N         19.6080  -15.9940   -3.0400 N.3    23  LEU23      -0.1245
     13  CA        19.1060  -16.8920   -2.0200 C.3    23  LEU23       0.1561
     14  C         18.3720  -17.9860   -2.7590 C.2    23  LEU23       0.2260
     15  O         17.5660  -17.7000   -3.6580 O.2    23  LEU23      -0.2867
     16  CB        18.1530  -16.1090   -1.1340 C.3    23  LEU23       0.0270
     17  CG        17.0840  -16.7480   -0.2560 C.3    23  LEU23       0.0019
     18  CD1       17.7510  -17.4210    0.9240 C.3    23  LEU23       0.0001
     19  CD2       16.1450  -15.6320    0.2030 C.3    23  LEU23       0.0001
     20  N         15.6460  -20.3680   -3.0900 N.3    25  ASP25      -0.1239
     21  CA        14.3600  -20.1730   -2.4330 C.3    25  ASP25       0.1674
     22  C         13.2750  -21.1610   -2.8600 C.2    25  ASP25       0.2266
     23  O         12.6730  -20.9900   -3.9160 O.2    25  ASP25      -0.2867
     24  CB        13.9200  -18.7670   -2.7280 C.3    25  ASP25       0.1410
     25  CG        12.6830  -18.4030   -1.9990 C.2    25  ASP25       0.3668
     26  OD1       11.8940  -19.3060   -1.6410 O.co2  25  ASP25      -0.2456
     27  OD2       12.4140  -17.2180   -1.7540 O.co2  25  ASP25      -0.2456
     28  N         10.3880  -21.5830   -1.8300 N.3    27  GLY27      -0.1210
     29  CA         9.0790  -20.9370   -1.7920 C.3    27  GLY27       0.1956
     30  C          8.8910  -19.8780   -2.8630 C.2    27  GLY27       0.2612
     31  O          8.0140  -19.0060   -2.7170 O.2    27  GLY27      -0.2717
     32  N          9.6840  -19.9530   -3.9440 N.am   28  ALA28      -0.1965
     33  CA         9.5250  -19.0110   -5.0610 C.3    28  ALA28       0.1728
     34  C          9.3560  -19.7250   -6.3930 C.2    28  ALA28       0.2616
     35  O         10.2120  -20.4940   -6.7800 O.2    28  ALA28      -0.2715
     36  CB        10.7010  -18.0340   -5.1240 C.3    28  ALA28       0.0334
     37  N          8.2600  -19.4670   -7.0900 N.am   29  ASP29      -0.1957
     38  CA         8.0200  -20.1090   -8.3660 C.3    29  ASP29       0.1840
     39  C          9.0910  -19.6610   -9.3040 C.2    29  ASP29       0.2622
     40  O          9.6640  -20.4520  -10.0500 O.2    29  ASP29      -0.2715
     41  CB         6.6860  -19.6670   -8.9270 C.3    29  ASP29       0.1450
     42  CG         5.5430  -19.9350   -7.9680 C.2    29  ASP29       0.3671
     43  OD1        5.8000  -20.7060   -7.0020 O.co2  29  ASP29      -0.2456
     44  OD2        4.3830  -19.4250   -8.1030 O.co2  29  ASP29      -0.2456
     45  N          9.3650  -18.3710   -9.2340 N.am   30  ASP30      -0.1971
     46  CA        10.1990  -17.6990  -10.1940 C.3    30  ASP30       0.1709
     47  C         11.4980  -17.2350   -9.5530 C.2    30  ASP30       0.2293
     48  O         11.6590  -17.3060   -8.3380 O.2    30  ASP30      -0.2864
     49  CB         9.4340  -16.5050  -10.7390 C.3    30  ASP30       0.1436
     50  CG         8.1810  -16.9090  -11.4610 C.2    30  ASP30       0.3671
     51  OD1        8.2050  -17.9860  -12.0970 O.co2  30  ASP30      -0.2456
     52  OD2        7.1270  -16.2210  -11.4590 O.co2  30  ASP30      -0.2456
     53  N         14.0230  -14.0260   -9.0910 N.3    32  VAL32      -0.1245
     54  CA        13.8790  -12.5740   -9.1090 C.3    32  VAL32       0.1561
     55  C         15.1870  -11.9390   -8.7960 C.2    32  VAL32       0.2260
     56  O         15.7280  -12.1300   -7.7110 O.2    32  VAL32      -0.2867
     57  CB        12.9080  -12.0590   -8.0410 C.3    32  VAL32       0.0252
     58  CG1       12.5790  -10.6410   -8.3280 C.3    32  VAL32       0.0019
     59  CG2       11.6490  -12.8830   -8.0200 C.3    32  VAL32       0.0019
     60  N          5.5510   -8.3230  -16.2220 N.3    45  LYS45      -0.1231
     61  CA         5.1120   -9.4200  -15.3730 C.3    45  LYS45       0.1693
     62  C          5.0100   -8.9000  -13.9530 C.2    45  LYS45       0.2592
     63  O          5.6350   -7.9070  -13.5970 O.2    45  LYS45      -0.2718
     64  CB         6.1240  -10.5820  -15.4400 C.3    45  LYS45       0.0285
     65  CG         5.5360  -12.0130  -15.3870 C.3    45  LYS45       0.0035
     66  CD         5.2170  -12.5610  -16.7960 C.3    45  LYS45       0.0206
     67  CE         5.0170  -14.1090  -16.7650 C.3    45  LYS45       0.1093
     68  NZ         5.0360  -14.7680  -18.1380 N.3    45  LYS45      -0.1314
     69  N          4.2230   -9.5780  -13.1360 N.am   46  ILE46      -0.1966
     70  CA         4.0050   -9.1480  -11.7660 C.3    46  ILE46       0.1727
     71  C          4.0170  -10.3780  -10.8190 C.2    46  ILE46       0.2616
     72  O          3.2050  -11.2940  -10.9650 O.2    46  ILE46      -0.2715
     73  CB         2.6770   -8.3020  -11.7100 C.3    46  ILE46       0.0290
     74  CG1        2.8080   -7.0410  -12.5940 C.3    46  ILE46       0.0022
     75  CG2        2.3320   -7.8870  -10.3100 C.3    46  ILE46       0.0023
     76  CD1        1.8490   -5.8470  -12.2780 C.3    46  ILE46       0.0001
     77  N          4.9610  -10.4190   -9.8840 N.am   47  ILE47      -0.1963
     78  CA         5.0110  -11.4740   -8.8480 C.3    47  ILE47       0.1727
     79  C          4.4080  -10.9710   -7.5540 C.2    47  ILE47       0.2617
     80  O          4.5550   -9.8020   -7.2110 O.2    47  ILE47      -0.2715
     81  CB         6.4390  -11.8720   -8.5540 C.3    47  ILE47       0.0290
     82  CG1        7.3100  -10.6200   -8.5360 C.3    47  ILE47       0.0022
     83  CG2        6.9410  -12.8220   -9.5850 C.3    47  ILE47       0.0023
     84  CD1        8.7130  -10.7770   -8.0100 C.3    47  ILE47       0.0001
     85  N          3.7330  -11.8470   -6.8240 N.am   48  GLY48      -0.1940
     86  CA         3.1770  -11.4920   -5.5210 C.3    48  GLY48       0.2014
     87  C          3.9640  -12.1530   -4.4330 C.2    48  GLY48       0.2639
     88  O          4.6270  -13.1760   -4.6590 O.2    48  GLY48      -0.2714
     89  N          3.8900  -11.5870   -3.2400 N.am   49  GLY49      -0.1939
     90  CA         4.6840  -12.0960   -2.1430 C.3    49  GLY49       0.2014
     91  C          3.9040  -12.1350   -0.8620 C.2    49  GLY49       0.2638
     92  O          2.7200  -12.4640   -0.8440 O.2    49  GLY49      -0.2714
     93  N          4.6000  -11.8300    0.2250 N.am   50  ILE50      -0.1977
     94  CA         3.9590  -11.5030    1.4950 C.3    50  ILE50       0.1596
     95  C          3.5820  -10.0180    1.4200 C.2    50  ILE50       0.2287
     96  O          4.4380   -9.1570    1.1300 O.2    50  ILE50      -0.2864
     97  CB         4.9250  -11.7840    2.6630 C.3    50  ILE50       0.0276
     98  CG1        4.9700  -13.2730    2.9720 C.3    50  ILE50       0.0022
     99  CG2        4.5440  -11.0110    3.8860 C.3    50  ILE50       0.0022
    100  CD1        3.6480  -13.8920    3.2790 C.3    50  ILE50       0.0001
    101  N         13.0900   -6.1860   -5.6880 N.3    80  THR80      -0.1204
    102  CA        12.9690   -7.1770   -4.6330 C.3    80  THR80       0.1979
    103  C         14.1370   -6.9340   -3.6720 C.2    80  THR80       0.2460
    104  O         15.1690   -6.4120   -4.1100 O.2    80  THR80      -0.2732
    105  CB        13.0520   -8.5750   -5.2600 C.3    80  THR80       0.1783
    106  OG1       13.3890   -9.5340   -4.2540 O.3    80  THR80      -0.2211
    107  CG2       14.2230   -8.6670   -6.2060 C.3    80  THR80       0.0376
    108  N         13.9900   -7.2520   -2.3850 N.am   81  PRO81      -0.2717
    109  CA        15.0670   -7.0610   -1.4150 C.3    81  PRO81       0.1535
    110  C         16.3010   -7.9520   -1.6210 C.2    81  PRO81       0.2598
    111  O         17.4140   -7.5960   -1.2050 O.2    81  PRO81      -0.2715
    112  CB        14.3890   -7.3870   -0.0860 C.3    81  PRO81       0.0310
    113  CG        12.9640   -7.1290   -0.3540 C.3    81  PRO81       0.0237
    114  CD        12.7620   -7.7080   -1.7280 C.3    81  PRO81       0.0939
    115  N         16.1240   -9.1010   -2.2570 N.am   82  ALA82      -0.1978
    116  CA        17.2280  -10.0260   -2.4360 C.3    82  ALA82       0.1597
    117  C         17.1350  -10.5880   -3.8350 C.2    82  ALA82       0.2287
    118  O         16.0690  -10.5220   -4.4850 O.2    82  ALA82      -0.2864
    119  CB        17.1430  -11.1450   -1.4340 C.3    82  ALA82       0.0319
    120  N         16.5510  -13.7120   -5.7090 N.3    84  ILE84      -0.1245
    121  CA        15.8530  -14.9560   -5.3780 C.3    84  ILE84       0.1561
    122  C         15.9630  -15.9700   -6.5030 C.2    84  ILE84       0.2260
    123  O         15.5430  -15.6980   -7.6160 O.2    84  ILE84      -0.2867
    124  CB        14.3920  -14.6510   -5.0150 C.3    84  ILE84       0.0252
    125  CG1       14.3960  -13.5910   -3.9090 C.3    84  ILE84       0.0019
    126  CG2       13.6790  -15.9370   -4.5740 C.3    84  ILE84       0.0019
    127  CD1       13.1340  -13.4020   -3.2480 C.3    84  ILE84       0.0001
@<TRIPOS>BOND
     1    68    67    1
     2    66    67    1
     3    66    65    1
     4    60    61    1
     5    64    65    1
     6    64    61    1
     7    61    62    1
     8    62    63    2
     9    62    69   am
    10    69    70    1
    11    74    76    1
    12    74    73    1
    13    51    50   ar
    14    70    73    1
    15    70    71    1
    16    73    75    1
    17    50    52   ar
    18    50    49    1
    19    72    71    2
    20    71    77   am
    21    49    46    1
    22    46    47    1
    23    46    45    1
    24    40    39    2
    25    77    78    1
    26    83    81    1
    27    47    48    2
    28    39    45   am
    29    39    38    1
    30    54    53    1
    31    54    55    1
    32    54    57    1
    33    41    38    1
    34    41    42    1
    35    78    81    1
    36    78    79    1
    37    55    56    2
    38    81    82    1
    39    82    84    1
    40    38    37    1
    41    58    57    1
    42    44    42   ar
    43    57    59    1
    44    42    43   ar
    45   123   122    2
    46    79    80    2
    47    79    85   am
    48    37    34   am
    49    85    86    1
    50    35    34    2
    51   122   121    1
    52    34    33    1
    53   107   105    1
    54   120   121    1
    55   101   102    1
    56    86    87    1
    57   121   124    1
    58   105   102    1
    59   105   106    1
    60    36    33    1
    61    33    32    1
    62   124   126    1
    63   124   125    1
    64    88    87    2
    65   102   103    1
    66   118   117    2
    67    87    89   am
    68   104   103    2
    69    32    30   am
    70    23    22    2
    71   125   127    1
    72   117   116    1
    73   103   108   am
    74    15    14    2
    75    89    90    1
    76    20    21    1
    77    12    13    1
    78    30    31    2
    79    30    29    1
    80    22    21    1
    81    14    13    1
    82    24    21    1
    83    24    25    1
    84   116   115    1
    85   116   119    1
    86   108   114    1
    87   108   109    1
    88   115   110   am
    89    90    91    1
    90    13    16    1
    91    25    27   ar
    92    25    26   ar
    93    28    29    1
    94   114   113    1
    95   110   109    1
    96   110   111    2
    97   109   112    1
    98    16    17    1
    99    91    92    2
   100    91    93   am
   101   113   112    1
   102    17    19    1
   103    17    18    1
   104    93    94    1
   105    96    95    2
   106    95    94    1
   107    94    97    1
   108    97    98    1
   109    97    99    1
   110    98   100    1
   111     3     4    2
   112     3     2    1
   113     5     2    1
   114     5     6    1
   115     2     1    1
   116     7     8    1
   117     7     6    1
   118     8     9    2
   119     9    11    1
   120     9    10    1
