@<TRIPOS>MOLECULE
tmp/2p3gA00.pdb
 168 159 0 0 0
SMALL
GASTEIGER

@<TRIPOS>ATOM
      1  N         78.1810  264.5830  113.0390 N.3    26  LEU26      -0.1231
      2  CA        78.1180  263.3310  112.2920 C.3    26  LEU26       0.1693
      3  C         79.0600  262.3040  112.9380 C.2    26  LEU26       0.2593
      4  O         78.6320  261.4890  113.7640 O.2    26  LEU26      -0.2718
      5  CB        78.4860  263.5520  110.8130 C.3    26  LEU26       0.0284
      6  CG        77.7980  264.6610  110.0120 C.3    26  LEU26       0.0019
      7  CD1       78.6740  265.1200  108.8570 C.3    26  LEU26       0.0001
      8  CD2       76.4350  264.2060  109.5190 C.3    26  LEU26       0.0001
      9  N         80.3370  262.3570  112.5580 N.am   27  GLY27      -0.1942
     10  CA        81.3620  261.4840  113.1120 C.3    27  GLY27       0.2014
     11  C         81.7580  261.9330  114.5050 C.2    27  GLY27       0.2639
     12  O         81.9330  263.1330  114.7670 O.2    27  GLY27      -0.2714
     13  N         81.8950  260.9480  115.3900 N.am   28  LEU28      -0.1963
     14  CA        82.1550  261.1670  116.8070 C.3    28  LEU28       0.1728
     15  C         83.4070  260.3700  117.1650 C.2    28  LEU28       0.2617
     16  O         83.3730  259.4600  118.0040 O.2    28  LEU28      -0.2715
     17  CB        80.9400  260.7170  117.6430 C.3    28  LEU28       0.0311
     18  CG        79.5330  260.7080  116.9980 C.3    28  LEU28       0.0022
     19  CD1       79.1940  259.3470  116.3560 C.3    28  LEU28       0.0001
     20  CD2       78.4310  261.1270  117.9870 C.3    28  LEU28       0.0001
     21  N         84.5110  260.7200  116.5100 N.am   29  GLY29      -0.1940
     22  CA        85.7290  259.9260  116.5750 C.3    29  GLY29       0.2014
     23  C         86.8670  260.5140  117.3880 C.2    29  GLY29       0.2638
     24  O         86.6500  261.3110  118.3050 O.2    29  GLY29      -0.2714
     25  N         88.0820  260.1080  117.0130 N.am   30  ILE30      -0.1977
     26  CA        89.3560  260.4020  117.7170 C.3    30  ILE30       0.1596
     27  C         89.5250  261.8060  118.3650 C.2    30  ILE30       0.2287
     28  O         89.2200  261.9830  119.5520 O.2    30  ILE30      -0.2864
     29  CB        90.5990  259.9820  116.8320 C.3    30  ILE30       0.0276
     30  CG1       90.4530  260.4620  115.3660 C.3    30  ILE30       0.0022
     31  CG2       90.7920  258.4560  116.8930 C.3    30  ILE30       0.0022
     32  CD1       91.7400  260.4110  114.5320 C.3    30  ILE30       0.0001
     33  N         82.6790  265.5170  114.1000 N.3    34  VAL34      -0.1245
     34  CA        82.6480  265.8150  112.6710 C.3    34  VAL34       0.1561
     35  C         81.3620  266.5480  112.3160 C.2    34  VAL34       0.2260
     36  O         80.2950  265.9520  112.2410 O.2    34  VAL34      -0.2867
     37  CB        82.8190  264.5690  111.8100 C.3    34  VAL34       0.0252
     38  CG1       82.9480  264.9500  110.3490 C.3    34  VAL34       0.0019
     39  CG2       84.0410  263.8260  112.2360 C.3    34  VAL34       0.0019
     40  N         78.6600  268.8500  110.1690 N.3    36  GLN36      -0.1245
     41  CA        78.1710  269.0910  108.8200 C.3    36  GLN36       0.1566
     42  C         78.5200  270.5180  108.4910 C.2    36  GLN36       0.2260
     43  O         78.4890  271.3840  109.3580 O.2    36  GLN36      -0.2867
     44  CB        76.6620  268.8760  108.7010 C.3    36  GLN36       0.0367
     45  CG        76.1960  268.7280  107.2360 C.3    36  GLN36       0.0905
     46  CD        74.7290  268.2610  107.0660 C.2    36  GLN36       0.2608
     47  OE1       73.8390  268.6180  107.8680 O.2    36  GLN36      -0.2717
     48  NE2       74.4740  267.4710  105.9990 N.am   36  GLN36      -0.0878
     49  N         81.8490  267.2010  105.3200 N.3    47  ALA47      -0.1245
     50  CA        82.3820  266.6890  106.5620 C.3    47  ALA47       0.1562
     51  C         83.5300  267.5700  106.9950 C.2    47  ALA47       0.2260
     52  O         84.3840  267.9340  106.1870 O.2    47  ALA47      -0.2867
     53  CB        82.8580  265.2800  106.3660 C.3    47  ALA47       0.0290
     54  N         86.4490  267.4670  109.7720 N.3    49  LYS49      -0.1245
     55  CA        87.2560  266.9930  110.8790 C.3    49  LYS49       0.1561
     56  C         88.0520  268.1800  111.3910 C.2    49  LYS49       0.2260
     57  O         88.3170  269.1390  110.6560 O.2    49  LYS49      -0.2867
     58  CB        88.1740  265.8440  110.4590 C.3    49  LYS49       0.0271
     59  CG        88.7580  265.0340  111.6160 C.3    49  LYS49       0.0035
     60  CD        89.2070  263.6320  111.1670 C.3    49  LYS49       0.0206
     61  CE        89.6650  262.7430  112.3420 C.3    49  LYS49       0.1093
     62  NZ        91.1450  262.7380  112.6020 N.3    49  LYS49      -0.1314
     63  N         96.2690  261.6560  103.6430 N.3    64  HIS64      -0.1241
     64  CA        94.8700  261.6240  103.2940 C.3    64  HIS64       0.1621
     65  C         94.6930  262.3240  101.9730 C.2    64  HIS64       0.2264
     66  O         94.0030  261.8340  101.0770 O.2    64  HIS64      -0.2867
     67  CB        94.0830  262.3720  104.3490 C.3    64  HIS64       0.0745
     68  CG        92.6840  261.8850  104.5040 C.ar   64  HIS64       0.0817
     69  ND1       92.1600  261.5570  105.8110 N.ar   64  HIS64      -0.2268
     70  CD2       91.7050  261.6360  103.5180 C.ar   64  HIS64       0.1154
     71  CE1       90.9140  261.1410  105.6240 C.ar   64  HIS64       0.1986
     72  NE2       90.6130  261.1830  104.2420 N.ar   64  HIS64      -0.2212
     73  N         87.8270  258.4020  100.5270 N.3    74  VAL74      -0.1245
     74  CA        87.2470  259.7140  100.7880 C.3    74  VAL74       0.1561
     75  C         88.1760  260.8460  100.3630 C.2    74  VAL74       0.2260
     76  O         89.3720  260.8520  100.7050 O.2    74  VAL74      -0.2867
     77  CB        86.8950  259.8870  102.2690 C.3    74  VAL74       0.0252
     78  CG1       88.1470  260.0900  103.0940 C.3    74  VAL74       0.0019
     79  CG2       85.9740  261.0560  102.4450 C.3    74  VAL74       0.0019
     80  N         86.1640  267.4900  104.1210 N.3    94  MET94      -0.1230
     81  CA        86.1510  266.3660  103.2130 C.3    94  MET94       0.1702
     82  C         84.7370  265.9990  102.8490 C.2    94  MET94       0.2592
     83  O         83.7940  266.4300  103.5100 O.2    94  MET94      -0.2718
     84  CB        86.9070  265.1710  103.8150 C.3    94  MET94       0.0401
     85  CG        86.1710  264.3800  104.8950 C.3    94  MET94       0.0596
     86  SD        87.3160  263.4420  105.9260 S.3    94  MET94      -0.1393
     87  CE        87.1250  264.2650  107.4940 C.3    94  MET94       0.0692
     88  N         84.6090  265.1920  101.7980 N.am   95  GLU95      -0.1966
     89  CA        83.3120  264.9060  101.2060 C.3    95  GLU95       0.1733
     90  C         82.4040  264.2360  102.1910 C.2    95  GLU95       0.2616
     91  O         82.7420  263.2220  102.7900 O.2    95  GLU95      -0.2715
     92  CB        83.4000  264.1160   99.8920 C.3    95  GLU95       0.0429
     93  CG        83.9820  262.7160   99.9600 C.3    95  GLU95       0.1163
     94  CD        83.8550  261.9640   98.6290 C.2    95  GLU95       0.3649
     95  OE1       84.8900  261.8140   97.9350 O.co2  95  GLU95      -0.2457
     96  OE2       82.7240  261.5360   98.2680 O.co2  95  GLU95      -0.2457
     97  N         81.2560  264.8580  102.3840 N.am   96  CYS96      -0.1954
     98  CA        80.2300  264.2790  103.1880 C.3    96  CYS96       0.1843
     99  C         79.8430  262.9630  102.5370 C.2    96  CYS96       0.2625
    100  O         79.8870  262.8280  101.3090 O.2    96  CYS96      -0.2714
    101  CB        79.0470  265.2180  103.2460 C.3    96  CYS96       0.0997
    102  SG        77.5240  264.3800  102.8960 S.3    96  CYS96      -0.0797
    103  N         79.4910  261.9950  103.3760 N.am   97  LEU97      -0.1963
    104  CA        79.0350  260.6860  102.9320 C.3    97  LEU97       0.1728
    105  C         77.7960  260.2320  103.7160 C.2    97  LEU97       0.2616
    106  O         77.8990  259.7300  104.8400 O.2    97  LEU97      -0.2715
    107  CB        80.1680  259.6770  103.0490 C.3    97  LEU97       0.0311
    108  CG        81.4180  260.0600  102.2560 C.3    97  LEU97       0.0022
    109  CD1       82.6460  259.3500  102.8030 C.3    97  LEU97       0.0001
    110  CD2       81.2370  259.7950  100.7620 C.3    97  LEU97       0.0001
    111  N         76.6280  260.4380  103.1030 N.am   98  ASP98      -0.1957
    112  CA        75.3220  260.0730  103.6670 C.3    98  ASP98       0.1840
    113  C         74.9650  258.6100  103.3600 C.2    98  ASP98       0.2623
    114  O         73.9130  258.3300  102.7670 O.2    98  ASP98      -0.2715
    115  CB        74.2230  260.9940  103.1020 C.3    98  ASP98       0.1450
    116  CG        74.0780  262.2910  103.8760 C.2    98  ASP98       0.3671
    117  OD1       73.9230  262.2220  105.1180 O.co2  98  ASP98      -0.2456
    118  OD2       74.0890  263.3750  103.2400 O.co2  98  ASP98      -0.2456
    119  N         75.8330  257.6840  103.7640 N.am   99  GLY99      -0.1940
    120  CA        75.6270  256.2680  103.4800 C.3    99  GLY99       0.2014
    121  C         75.3200  255.4050  104.6870 C.2    99  GLY99       0.2639
    122  O         74.3830  254.6070  104.6550 O.2    99  GLY99      -0.2714
    123  N         76.1060  255.5630  105.7510 N.am  100  GLY100     -0.1954
    124  CA        76.0100  254.6960  106.9280 C.3   100  GLY100      0.1869
    125  C         77.0540  253.5850  106.9190 C.2   100  GLY100      0.2309
    126  O         77.4310  253.0750  105.8520 O.2   100  GLY100     -0.2863
    127  N         84.8230  252.8050  109.7570 N.3   147  ASN147     -0.1240
    128  CA        85.5470  253.6040  108.7860 C.3   147  ASN147      0.1653
    129  C         85.1680  253.3640  107.3360 C.2   147  ASN147      0.2266
    130  O         85.7780  253.9270  106.4250 O.2   147  ASN147     -0.2867
    131  CB        87.0440  253.4900  109.0060 C.3   147  ASN147      0.1155
    132  CG        87.5040  254.3260  110.1610 C.2   147  ASN147      0.2627
    133  OD1       86.8050  255.2450  110.5870 O.2   147  ASN147     -0.2716
    134  ND2       88.6790  254.0180  110.6830 N.am  147  ASN147     -0.0877
    135  N         81.8590  253.7550  104.8600 N.3   149  LEU149     -0.1245
    136  CA        80.5590  254.4170  104.7560 C.3   149  LEU149      0.1561
    137  C         80.2740  254.6250  103.2970 C.2   149  LEU149      0.2260
    138  O         81.1920  254.6090  102.4940 O.2   149  LEU149     -0.2867
    139  CB        80.6130  255.7840  105.4190 C.3   149  LEU149      0.0270
    140  CG        81.0950  255.8550  106.8670 C.3   149  LEU149      0.0019
    141  CD1       81.9660  257.0710  107.0910 C.3   149  LEU149      0.0001
    142  CD2       79.9240  255.8440  107.8380 C.3   149  LEU149      0.0001
    143  N         87.6120  255.9860  105.5380 N.3   162  THR162     -0.1203
    144  CA        87.9440  257.2130  106.2470 C.3   162  THR162      0.1994
    145  C         88.8650  257.0170  107.4370 C.2   162  THR162      0.2618
    146  O         89.2590  255.9020  107.7430 O.2   162  THR162     -0.2717
    147  CB        86.6880  257.8600  106.7900 C.3   162  THR162      0.1784
    148  OG1       86.4840  257.4300  108.1430 O.3   162  THR162     -0.2211
    149  CG2       85.4960  257.4700  105.9410 C.3   162  THR162      0.0376
    150  N         89.1690  258.1210  108.1150 N.am  163  ASP163     -0.1959
    151  CA        89.9680  258.1300  109.3370 C.3   163  ASP163      0.1840
    152  C         91.3930  257.6540  109.1340 C.2   163  ASP163      0.2622
    153  O         91.7370  256.5340  109.4480 O.2   163  ASP163     -0.2715
    154  CB        89.2890  257.3450  110.4630 C.3   163  ASP163      0.1450
    155  CG        89.9090  257.6140  111.8270 C.2   163  ASP163      0.3671
    156  OD1       90.8090  258.4690  111.9430 O.co2 163  ASP163     -0.2456
    157  OD2       89.4880  256.9670  112.8040 O.co2 163  ASP163     -0.2456
    158  N         92.2310  258.5340  108.6230 N.am  164  PHE164     -0.1974
    159  CA        93.6430  258.2400  108.5060 C.3   164  PHE164      0.1639
    160  C         94.3640  258.6650  109.7610 C.2   164  PHE164      0.2290
    161  O         95.5340  259.0270  109.7140 O.2   164  PHE164     -0.2864
    162  CB        94.2210  258.9910  107.3200 C.3   164  PHE164      0.0560
    163  CG        93.8440  258.4090  106.0050 C.ar  164  PHE164     -0.0200
    164  CD1       92.5720  257.8870  105.7940 C.ar  164  PHE164     -0.0042
    165  CD2       94.7540  258.3920  104.9650 C.ar  164  PHE164     -0.0042
    166  CE1       92.2230  257.3410  104.5660 C.ar  164  PHE164     -0.0003
    167  CE2       94.4150  257.8530  103.7330 C.ar  164  PHE164     -0.0003
    168  CZ        93.1490  257.3260  103.5310 C.ar  164  PHE164     -0.0000
@<TRIPOS>BOND
     1    95    94   ar
     2    96    94   ar
     3    94    93    1
     4    92    93    1
     5    92    89    1
     6    75    76    2
     7    75    74    1
     8    73    74    1
     9   110   108    1
    10    74    77    1
    11    66    65    2
    12    89    88    1
    13    89    90    1
    14   100    99    2
    15    88    82   am
    16    65    64    1
    17    90    97   am
    18    90    91    2
    19   108   109    1
    20   108   107    1
    21    77    79    1
    22    77    78    1
    23    97    98    1
    24   138   137    2
    25    99    98    1
    26    99   103   am
    27   114   113    2
    28    82    81    1
    29    82    83    2
    30   102   101    1
    31   104   107    1
    32   104   103    1
    33   104   105    1
    34   115   112    1
    35   115   116    1
    36   111   112    1
    37   111   105   am
    38    98   101    1
    39    81    84    1
    40    81    80    1
    41   118   116   ar
    42    64    63    1
    43    64    67    1
    44   137   136    1
    45   113   112    1
    46   113   119   am
    47   120   119    1
    48   120   121    1
    49    70    72   ar
    50    70    68   ar
    51   168   167   ar
    52   168   166   ar
    53   105   106    2
    54   167   165   ar
    55    84    85    1
    56   116   117   ar
    57    72    71   ar
    58    67    68    1
    59    68    69   ar
    60   166   164   ar
    61   122   121    2
    62   121   123   am
    63   136   135    1
    64   136   139    1
    65    85    86    1
    66   165   163   ar
    67    49    50    1
    68   139   140    1
    69   143   144    1
    70    71    69   ar
    71   123   124    1
    72   164   163   ar
    73   126   125    2
    74    86    87    1
    75   149   147    1
    76    48    46   am
    77   163   162    1
    78    52    51    2
    79   144   147    1
    80   144   145    1
    81    53    50    1
    82   130   129    2
    83    50    51    1
    84   147   148    1
    85   140   141    1
    86   140   142    1
    87   125   124    1
    88    46    45    1
    89    46    47    2
    90    45    44    1
    91   162   159    1
    92   129   128    1
    93   145   146    2
    94   145   150   am
    95   150   151    1
    96    42    41    1
    97    42    43    2
    98   159   158    1
    99   159   160    1
   100   158   152   am
   101    44    41    1
   102   128   131    1
   103   128   127    1
   104    41    40    1
   105     7     6    1
   106   131   132    1
   107   152   151    1
   108   152   153    2
   109   151   154    1
   110     8     6    1
   111   161   160    2
   112    54    55    1
   113     6     5    1
   114   132   133    2
   115   132   134   am
   116    38    37    1
   117    58    55    1
   118    58    59    1
   119   154   155    1
   120    57    56    2
   121     5     2    1
   122    55    56    1
   123    60    59    1
   124    60    61    1
   125    37    39    1
   126    37    34    1
   127   155   156   ar
   128   155   157   ar
   129    36    35    2
   130     2     3    1
   131     2     1    1
   132    35    34    1
   133    61    62    1
   134     9     3   am
   135     9    10    1
   136    34    33    1
   137     3     4    2
   138    10    11    1
   139    11    12    2
   140    11    13   am
   141    32    30    1
   142    30    29    1
   143    13    14    1
   144    19    18    1
   145    21    22    1
   146    21    15   am
   147    22    23    1
   148    14    15    1
   149    14    17    1
   150    29    31    1
   151    29    26    1
   152    18    17    1
   153    18    20    1
   154    25    23   am
   155    25    26    1
   156    15    16    2
   157    23    24    2
   158    26    27    1
   159    27    28    2
