@<TRIPOS>MOLECULE
tmp/2p3uB00.pdb
 213 209 0 0 0
SMALL
GASTEIGER

@<TRIPOS>ATOM
      1  N         14.0580   10.3840   13.9760 N.3    42  HIS42      -0.1241
      2  CA        12.6030   10.3190   13.9010 C.3    42  HIS42       0.1621
      3  C         11.9730   11.6720   14.2110 C.2    42  HIS42       0.2264
      4  O         10.8290   11.9310   13.8480 O.2    42  HIS42      -0.2867
      5  CB        12.0510    9.2310   14.8410 C.3    42  HIS42       0.0745
      6  CG        11.8680    9.6730   16.2610 C.ar   42  HIS42       0.0817
      7  ND1       12.7280    9.3000   17.2720 N.ar   42  HIS42      -0.2268
      8  CD2       10.9080   10.4300   16.8450 C.ar   42  HIS42       0.1154
      9  CE1       12.3060    9.8090   18.4160 C.ar   42  HIS42       0.1986
     10  NE2       11.2040   10.4990   18.1850 N.ar   42  HIS42      -0.2212
     11  N         11.2270    4.1600   10.0330 N.3    82  LYS82      -0.1231
     12  CA        10.2250    4.3710   11.0690 C.3    82  LYS82       0.1693
     13  C          9.6390    3.0600   11.5810 C.2    82  LYS82       0.2592
     14  O          9.0130    3.0210   12.6400 O.2    82  LYS82      -0.2718
     15  CB         9.1030    5.2650   10.5350 C.3    82  LYS82       0.0285
     16  CG         8.4790    4.7760    9.2340 C.3    82  LYS82       0.0035
     17  CD         7.6130    5.8540    8.5930 C.3    82  LYS82       0.0206
     18  CE         7.0800    5.4090    7.2370 C.3    82  LYS82       0.1093
     19  NZ         6.3180    6.4930    6.5530 N.3    82  LYS82      -0.1314
     20  N          9.8440    1.9850   10.8300 N.am   83  GLU83      -0.1966
     21  CA         9.2380    0.7050   11.1680 C.3    83  GLU83       0.1733
     22  C         10.0050   -0.0140   12.2690 C.2    83  GLU83       0.2617
     23  O          9.4570   -0.8670   12.9650 O.2    83  GLU83      -0.2715
     24  CB         9.1660   -0.1840    9.9250 C.3    83  GLU83       0.0429
     25  CG         8.4080    0.4450    8.7690 C.3    83  GLU83       0.1163
     26  CD         8.0320   -0.5630    7.7050 C.2    83  GLU83       0.3649
     27  OE1        6.8200   -0.7710    7.4870 O.co2  83  GLU83      -0.2457
     28  OE2        8.9470   -1.1470    7.0860 O.co2  83  GLU83      -0.2457
     29  N         11.2780    0.3310   12.4220 N.am   84  THR84      -0.1937
     30  CA        12.1270   -0.3180   13.4100 C.3    84  THR84       0.2028
     31  C         12.6810    0.6970   14.4010 C.2    84  THR84       0.2642
     32  O         13.0210    0.3510   15.5310 O.2    84  THR84      -0.2714
     33  CB        13.3060   -1.0300   12.7320 C.3    84  THR84       0.1808
     34  OG1       14.0900   -0.0690   12.0120 O.3    84  THR84      -0.2208
     35  CG2       12.7950   -2.0880   11.7610 C.3    84  THR84       0.0379
     36  N         12.7660    1.9490   13.9580 N.am   85  TYR85      -0.1973
     37  CA        13.4320    3.0110   14.7100 C.3    85  TYR85       0.1639
     38  C         14.9180    2.7320   14.8920 C.2    85  TYR85       0.2290
     39  O         15.5750    3.3380   15.7390 O.2    85  TYR85      -0.2864
     40  CB        12.7680    3.2110   16.0770 C.3    85  TYR85       0.0560
     41  CG        11.7240    4.3070   16.0920 C.ar   85  TYR85      -0.0198
     42  CD1       10.7270    4.3570   15.1280 C.ar   85  TYR85      -0.0009
     43  CD2       11.7280    5.2870   17.0800 C.ar   85  TYR85      -0.0009
     44  CE1        9.7620    5.3470   15.1450 C.ar   85  TYR85       0.0417
     45  CE2       10.7650    6.2830   17.1070 C.ar   85  TYR85       0.0417
     46  CZ         9.7840    6.3070   16.1370 C.ar   85  TYR85       0.1957
     47  OH         8.8210    7.2900   16.1560 O.3    85  TYR85      -0.2866
     48  N          6.8980   15.8080   28.2780 N.3   132  ARG132     -0.1245
     49  CA         5.8000   15.5770   29.2130 C.3   132  ARG132      0.1563
     50  C          6.3020   15.1040   30.5710 C.2   132  ARG132      0.2260
     51  O          7.2800   14.3600   30.6570 O.2   132  ARG132     -0.2867
     52  CB         4.8440   14.5290   28.6450 C.3   132  ARG132      0.0307
     53  CG         4.2760   14.8750   27.2890 C.3   132  ARG132      0.0489
     54  CD         3.2820   13.8200   26.8460 C.3   132  ARG132      0.2205
     55  NE         2.6900   14.1320   25.5510 N.pl3 132  ARG132     -0.0865
     56  CZ         1.5680   13.5850   25.0960 C.cat 132  ARG132      0.5346
     57  NH1        0.9170   12.6980   25.8360 N.pl3 132  ARG132      0.1354
     58  NH2        1.0980   13.9230   23.9030 N.pl3 132  ARG132      0.1354
     59  N          2.8630   10.4310   31.1530 N.3   135  GLU135     -0.1245
     60  CA         2.5310    9.9090   29.8340 C.3   135  GLU135      0.1567
     61  C          1.3820   10.6680   29.1740 C.2   135  GLU135      0.2260
     62  O          1.3980   10.9030   27.9680 O.2   135  GLU135     -0.2867
     63  CB         2.1830    8.4210   29.9280 C.3   135  GLU135      0.0388
     64  CG         1.9980    7.7490   28.5770 C.3   135  GLU135      0.1160
     65  CD         1.7680    6.2520   28.6840 C.2   135  GLU135      0.3649
     66  OE1        2.4400    5.5990   29.5110 O.co2 135  GLU135     -0.2457
     67  OE2        0.9150    5.7280   27.9370 O.co2 135  GLU135     -0.2457
     68  N          9.0670   -4.5700   21.1130 N.3   162  PHE162     -0.1227
     69  CA         9.7460   -4.3100   19.8500 C.3   162  PHE162      0.1736
     70  C         11.2060   -4.7360   19.9300 C.2   162  PHE162      0.2595
     71  O         11.7910   -4.7740   21.0120 O.2   162  PHE162     -0.2718
     72  CB         9.6600   -2.8220   19.5030 C.3   162  PHE162      0.0547
     73  CG         8.2550   -2.3030   19.4260 C.ar  162  PHE162     -0.0202
     74  CD1        7.5960   -2.2270   18.2100 C.ar  162  PHE162     -0.0042
     75  CD2        7.5870   -1.9090   20.5720 C.ar  162  PHE162     -0.0042
     76  CE1        6.2940   -1.7650   18.1400 C.ar  162  PHE162     -0.0003
     77  CE2        6.2870   -1.4480   20.5090 C.ar  162  PHE162     -0.0003
     78  CZ         5.6390   -1.3770   19.2920 C.ar  162  PHE162     -0.0000
     79  N         11.7870   -5.0550   18.7790 N.am  163  ILE163     -0.1980
     80  CA        13.1800   -5.4780   18.7160 C.3   163  ILE163      0.1595
     81  C         14.1170   -4.3810   19.2080 C.2   163  ILE163      0.2287
     82  O         14.0060   -3.2260   18.7970 O.2   163  ILE163     -0.2864
     83  CB        13.5900   -5.8580   17.2760 C.3   163  ILE163      0.0276
     84  CG1       12.8890   -7.1520   16.8530 C.3   163  ILE163      0.0022
     85  CG2       15.0980   -6.0220   17.1920 C.3   163  ILE163      0.0022
     86  CD1       11.3830   -7.0370   16.7570 C.3   163  ILE163      0.0001
     87  N         20.6730    0.3250   19.8750 N.3   168  MET168     -0.1245
     88  CA        19.8700    0.8220   20.9850 C.3   168  MET168      0.1570
     89  C         20.3980    0.2850   22.3070 C.2   168  MET168      0.2261
     90  O         21.0150   -0.7800   22.3500 O.2   168  MET168     -0.2867
     91  CB        18.4160    0.3810   20.8240 C.3   168  MET168      0.0387
     92  CG        17.8070    0.7300   19.4900 C.3   168  MET168      0.0595
     93  SD        16.2250   -0.0820   19.3150 S.3   168  MET168     -0.1393
     94  CE        15.7670    0.4160   17.6660 C.3   168  MET168      0.0692
     95  N         11.1630    8.4400   34.1110 N.3   179  ASP179     -0.1225
     96  CA        11.4700    8.0570   32.7370 C.3   179  ASP179      0.1805
     97  C         11.5170    9.3250   31.8960 C.2   179  ASP179      0.2598
     98  O         11.0530   10.3810   32.3290 O.2   179  ASP179     -0.2718
     99  CB        10.3780    7.1180   32.2070 C.3   179  ASP179      0.1424
    100  CG        10.7720    6.4010   30.9240 C.2   179  ASP179      0.3668
    101  OD1       11.9240    6.5440   30.4610 O.co2 179  ASP179     -0.2456
    102  OD2        9.9120    5.6810   30.3720 O.co2 179  ASP179     -0.2456
    103  N         12.0890    9.2220   30.7020 N.am  180  ALA180     -0.1966
    104  CA        11.9030   10.2570   29.6950 C.3   180  ALA180      0.1728
    105  C         10.5060   10.0670   29.1230 C.2   180  ALA180      0.2616
    106  O          9.8300    9.0910   29.4400 O.2   180  ALA180     -0.2715
    107  CB        12.9500   10.1180   28.5940 C.3   180  ALA180      0.0334
    108  N         10.0710   10.9950   28.2820 N.am  181  CYS181     -0.1954
    109  CA         8.7380   10.9040   27.7130 C.3   181  CYS181      0.1843
    110  C          8.6680   11.6590   26.3930 C.2   181  CYS181      0.2625
    111  O          9.6640   12.2190   25.9330 O.2   181  CYS181     -0.2714
    112  CB         7.7220   11.4660   28.7120 C.3   181  CYS181      0.0997
    113  SG         5.9970   10.9130   28.4720 S.3   181  CYS181     -0.0797
    114  N          7.4900   11.6660   25.7800 N.am  182  GLN182     -0.1977
    115  CA         7.2960   12.3770   24.5240 C.3   182  GLN182      0.1601
    116  C          7.6870   13.8410   24.7040 C.2   182  GLN182      0.2287
    117  O          7.3690   14.4570   25.7230 O.2   182  GLN182     -0.2864
    118  CB         5.8330   12.2680   24.0910 C.3   182  GLN182      0.0394
    119  CG         5.5640   12.7170   22.6670 C.3   182  GLN182      0.0908
    120  CD         4.3190   12.0730   22.0920 C.2   182  GLN182      0.2608
    121  OE1        3.2410   12.1410   22.6830 O.2   182  GLN182     -0.2717
    122  NE2        4.4630   11.4360   20.9350 N.am  182  GLN182     -0.0878
    123  N         12.2930   13.3450   23.2820 N.3   185  SER185     -0.1217
    124  CA        12.8990   12.6140   22.1730 C.3   185  SER185      0.1889
    125  C         13.9510   13.4570   21.4550 C.2   185  SER185      0.2288
    126  O         13.7340   14.6390   21.2080 O.2   185  SER185     -0.2866
    127  CB        11.8070   12.2090   21.1840 C.3   185  SER185      0.2089
    128  OG        10.6250   11.8440   21.8840 O.3   185  SER185     -0.2183
    129  N         17.6470   10.2390   23.3770 N.3   203  VAL203     -0.1231
    130  CA        16.3070    9.8000   23.7580 C.3   203  VAL203      0.1692
    131  C         15.5820    9.3600   22.4910 C.2   203  VAL203      0.2593
    132  O         15.3910   10.1620   21.5740 O.2   203  VAL203     -0.2718
    133  CB        15.5090   10.9420   24.4160 C.3   203  VAL203      0.0266
    134  CG1       14.1050   10.4570   24.7630 C.3   203  VAL203      0.0020
    135  CG2       16.2300   11.4380   25.6600 C.3   203  VAL203      0.0020
    136  N         15.1820    8.0920   22.4280 N.am  204  SER204     -0.1938
    137  CA        14.6530    7.5510   21.1790 C.3   204  SER204      0.2055
    138  C         13.1800    7.1500   21.2400 C.2   204  SER204      0.2643
    139  O         12.3450    7.7500   20.5690 O.2   204  SER204     -0.2714
    140  CB        15.4900    6.3540   20.7240 C.3   204  SER204      0.2130
    141  OG        15.0750    5.9180   19.4380 O.3   204  SER204     -0.2179
    142  N         12.8610    6.1340   22.0330 N.am  205  TRP205     -0.1959
    143  CA        11.4780    5.6830   22.1390 C.3   205  TRP205      0.1771
    144  C         11.2330    4.8650   23.3980 C.2   205  TRP205      0.2620
    145  O         12.1660    4.4930   24.1110 O.2   205  TRP205     -0.2715
    146  CB        11.0840    4.8600   20.9140 C.3   205  TRP205      0.0590
    147  CG        11.8680    3.6050   20.7550 C.ar  205  TRP205      0.0006
    148  CD1       13.0760    3.4710   20.1380 C.ar  205  TRP205      0.0946
    149  CD2       11.4940    2.2920   21.1960 C.ar  205  TRP205      0.0152
    150  NE1       13.4780    2.1570   20.1630 N.ar  205  TRP205     -0.2442
    151  CE2       12.5250    1.4120   20.8070 C.ar  205  TRP205      0.0810
    152  CE3       10.3880    1.7750   21.8790 C.ar  205  TRP205      0.0012
    153  CZ2       12.4830    0.0430   21.0790 C.ar  205  TRP205      0.0191
    154  CZ3       10.3470    0.4140   22.1480 C.ar  205  TRP205      0.0001
    155  CH2       11.3870   -0.4340   21.7480 C.ar  205  TRP205      0.0015
    156  N          9.9580    4.6130   23.6730 N.am  206  GLY206     -0.1940
    157  CA         9.5800    3.7980   24.8090 C.3   206  GLY206      0.2014
    158  C          8.0930    3.5450   24.7080 C.2   206  GLY206      0.2639
    159  O          7.3690    4.3570   24.1470 O.2   206  GLY206     -0.2714
    160  N          7.6270    2.4230   25.2390 N.am  207  GLU207     -0.1963
    161  CA         6.2070    2.1110   25.1680 C.3   207  GLU207      0.1733
    162  C          5.4620    2.9090   26.2340 C.2   207  GLU207      0.2617
    163  O          5.3520    2.4870   27.3800 O.2   207  GLU207     -0.2715
    164  CB         6.0090    0.6050   25.3550 C.3   207  GLU207      0.0429
    165  CG         6.7980   -0.2080   24.3340 C.3   207  GLU207      0.1163
    166  CD         6.6480   -1.7060   24.5120 C.2   207  GLU207      0.3649
    167  OE1        5.4990   -2.1960   24.4940 O.co2 207  GLU207     -0.2457
    168  OE2        7.6800   -2.3930   24.6640 O.co2 207  GLU207     -0.2457
    169  N          4.9630    4.0800   25.8450 N.am  208  GLY208     -0.1940
    170  CA         4.4260    5.0070   26.8230 C.3   208  GLY208      0.2014
    171  C          5.5470    5.6720   27.6010 C.2   208  GLY208      0.2639
    172  O          6.6430    5.8690   27.0730 O.2   208  GLY208     -0.2714
    173  N          5.2750    6.0190   28.8540 N.am  209  CYS209     -0.1967
    174  CA         6.2790    6.6240   29.7200 C.3   209  CYS209      0.1712
    175  C          6.1680    6.0690   31.1350 C.2   209  CYS209      0.2296
    176  O          5.0800    6.0200   31.7070 O.2   209  CYS209     -0.2864
    177  CB         6.1000    8.1450   29.7530 C.3   209  CYS209      0.0983
    178  SG         6.1540    8.9200   28.1080 S.3   209  CYS209     -0.0798
    179  N          6.0660    3.2640   32.3220 N.3   211  ARG211     -0.1245
    180  CA         5.1820    2.1160   32.5030 C.3   211  ARG211      0.1563
    181  C          5.8870    0.9850   33.2430 C.2   211  ARG211      0.2260
    182  O          7.0870    0.7680   33.0700 O.2   211  ARG211     -0.2867
    183  CB         4.6850    1.6040   31.1510 C.3   211  ARG211      0.0307
    184  CG         3.6760    2.5110   30.4690 C.3   211  ARG211      0.0489
    185  CD         3.0630    1.8180   29.2640 C.3   211  ARG211      0.2205
    186  NE         2.2990    2.7350   28.4230 N.pl3 211  ARG211     -0.0865
    187  CZ         1.8450    2.4270   27.2120 C.cat 211  ARG211      0.5346
    188  NH1        2.0770    1.2240   26.7030 N.pl3 211  ARG211      0.1354
    189  NH2        1.1690    3.3220   26.5040 N.pl3 211  ARG211      0.1354
    190  N         13.1310    2.9770   29.1570 N.3   216  GLY216     -0.1210
    191  CA        13.3770    3.9500   28.1110 C.3   216  GLY216      0.1956
    192  C         14.4150    3.4100   27.1480 C.2   216  GLY216      0.2612
    193  O         15.3960    2.7930   27.5720 O.2   216  GLY216     -0.2717
    194  N         14.1970    3.6240   25.8550 N.am  217  ILE217     -0.1965
    195  CA        15.1180    3.1250   24.8500 C.3   217  ILE217      0.1727
    196  C         15.8700    4.2950   24.2220 C.2   217  ILE217      0.2616
    197  O         15.2710    5.2840   23.7900 O.2   217  ILE217     -0.2715
    198  CB        14.3860    2.3420   23.7310 C.3   217  ILE217      0.0290
    199  CG1       13.3950    1.3410   24.3390 C.3   217  ILE217      0.0022
    200  CG2       15.4010    1.6030   22.8780 C.3   217  ILE217      0.0023
    201  CD1       14.0000    0.4120   25.3580 C.3   217  ILE217      0.0001
    202  N         17.1900    4.1650   24.1800 N.am  218  TYR218     -0.1974
    203  CA        18.0630    5.2390   23.7270 C.3   218  TYR218      0.1639
    204  C         18.9190    4.7920   22.5520 C.2   218  TYR218      0.2290
    205  O         19.3330    3.6390   22.4800 O.2   218  TYR218     -0.2864
    206  CB        18.9670    5.6760   24.8780 C.3   218  TYR218      0.0560
    207  CG        18.2140    6.2590   26.0510 C.ar  218  TYR218     -0.0198
    208  CD1       17.5940    5.4360   26.9880 C.ar  218  TYR218     -0.0009
    209  CD2       18.1140    7.6340   26.2190 C.ar  218  TYR218     -0.0009
    210  CE1       16.8960    5.9750   28.0590 C.ar  218  TYR218      0.0417
    211  CE2       17.4200    8.1790   27.2770 C.ar  218  TYR218      0.0417
    212  CZ        16.8120    7.3490   28.1960 C.ar  218  TYR218      0.1957
    213  OH        16.1140    7.8980   29.2470 O.3   218  TYR218     -0.2866
@<TRIPOS>BOND
     1    19    18    1
     2    28    26   ar
     3    18    17    1
     4    27    26   ar
     5    26    25    1
     6    17    16    1
     7    25    24    1
     8    16    15    1
     9    24    21    1
    10    11    12    1
    11    15    12    1
    12    20    21    1
    13    20    13   am
    14    12    13    1
    15    21    22    1
    16    13    14    2
    17    35    33    1
    18    34    33    1
    19    22    29   am
    20    22    23    2
    21    29    30    1
    22    33    30    1
    23    30    31    1
    24     4     3    2
    25     2     1    1
    26     2     3    1
    27     2     5    1
    28    36    31   am
    29    36    37    1
    30    31    32    2
    31    37    38    1
    32    37    40    1
    33     5     6    1
    34    38    39    2
    35    42    44   ar
    36    42    41   ar
    37    44    46   ar
    38    40    41    1
    39    41    43   ar
    40    46    47    1
    41    46    45   ar
    42     6     8   ar
    43     6     7   ar
    44    86    84    1
    45     8    10   ar
    46    84    83    1
    47    43    45   ar
    48    85    83    1
    49     7     9   ar
    50    83    80    1
    51    94    93    1
    52    76    74   ar
    53    76    78   ar
    54    10     9   ar
    55    74    73   ar
    56    80    79    1
    57    80    81    1
    58    79    70   am
    59    82    81    2
    60    78    77   ar
    61    93    92    1
    62    73    72    1
    63    73    75   ar
    64   141   140    1
    65    92    91    1
    66    72    69    1
    67    69    70    1
    68    69    68    1
    69    87    88    1
    70    70    71    2
    71   148   150   ar
    72   148   147   ar
    73   150   151   ar
    74    77    75   ar
    75   139   138    2
    76   140   137    1
    77   147   146    1
    78   147   149   ar
    79   151   153   ar
    80   151   149   ar
    81    91    88    1
    82   146   143    1
    83   122   120   am
    84    88    89    1
    85   153   155   ar
    86   137   138    1
    87   137   136    1
    88   127   128    1
    89   127   124    1
    90   149   152   ar
    91   126   125    2
    92   138   142   am
    93   125   124    1
    94   132   131    2
    95   155   154   ar
    96   152   154   ar
    97   142   143    1
    98   120   119    1
    99   120   121    2
   100   143   144    1
   101   124   123    1
   102    89    90    2
   103   136   131   am
   104   205   204    2
   105   131   130    1
   106   204   203    1
   107   119   118    1
   108   200   198    1
   109   129   130    1
   110   144   156   am
   111   144   145    2
   112   156   157    1
   113   203   202    1
   114   203   206    1
   115   198   199    1
   116   198   195    1
   117   130   133    1
   118   197   196    2
   119    58    56    1
   120   118   115    1
   121   159   158    2
   122   202   196   am
   123   196   195    1
   124   165   166    1
   125   165   164    1
   126   199   201    1
   127   133   134    1
   128   133   135    1
   129   167   166   ar
   130   166   168   ar
   131   115   116    1
   132   115   114    1
   133   116   117    2
   134   158   157    1
   135   158   160   am
   136   195   194    1
   137   206   207    1
   138    56    55    2
   139    56    57    1
   140   161   160    1
   141   161   164    1
   142   161   162    1
   143    55    54    1
   144   114   110   am
   145   169   162   am
   146   169   170    1
   147   194   192   am
   148   111   110    2
   149   207   209   ar
   150   207   208   ar
   151   209   211   ar
   152   162   163    2
   153   110   109    1
   154   189   187    1
   155   188   187    1
   156   170   171    1
   157    54    53    1
   158   208   210   ar
   159   172   171    2
   160   192   193    2
   161   192   191    1
   162   187   186    2
   163   211   212   ar
   164    53    52    1
   165   171   173   am
   166   109   108    1
   167   109   112    1
   168    67    65   ar
   169    62    61    2
   170   210   212   ar
   171   178   113    1
   172   178   177    1
   173   191   190    1
   174   212   213    1
   175    48    49    1
   176   108   105   am
   177   186   185    1
   178   113   112    1
   179    64    65    1
   180    64    63    1
   181   107   104    1
   182    52    49    1
   183    65    66   ar
   184   173   174    1
   185   105   106    2
   186   105   104    1
   187    61    60    1
   188    49    50    1
   189   185   184    1
   190   104   103    1
   191   174   177    1
   192   174   175    1
   193    60    63    1
   194    60    59    1
   195   102   100   ar
   196   101   100   ar
   197   184   183    1
   198    50    51    2
   199   103    97   am
   200   100    99    1
   201   175   176    2
   202   183   180    1
   203    97    98    2
   204    97    96    1
   205    99    96    1
   206   179   180    1
   207   180   181    1
   208    96    95    1
   209   182   181    2
