@<TRIPOS>MOLECULE
tmp/2p3vA00.pdb
 106 99 0 0 0
SMALL
GASTEIGER

@<TRIPOS>ATOM
      1  N          5.7180   46.3120   40.0850 N.3    36  ASP36      -0.1239
      2  CA         5.7990   44.8910   39.7770 C.3    36  ASP36       0.1674
      3  C          4.5620   44.3930   39.0200 C.2    36  ASP36       0.2266
      4  O          3.6240   45.1520   38.7680 O.2    36  ASP36      -0.2867
      5  CB         5.9740   44.0900   41.0720 C.3    36  ASP36       0.1410
      6  CG         7.0610   43.0270   40.9660 C.2    36  ASP36       0.3668
      7  OD1        6.9490   42.1140   40.1170 O.co2  36  ASP36      -0.2456
      8  OD2        8.0350   43.1050   41.7430 O.co2  36  ASP36      -0.2456
      9  N          8.9670   34.3160   42.9990 N.3    82  ASP82      -0.1225
     10  CA         9.7210   35.4930   43.3940 C.3    82  ASP82       0.1805
     11  C         10.6050   35.8190   42.1900 C.2    82  ASP82       0.2598
     12  O         11.4740   35.0340   41.8230 O.2    82  ASP82      -0.2718
     13  CB        10.5560   35.1910   44.6290 C.3    82  ASP82       0.1424
     14  CG        11.3150   36.4000   45.1230 C.2    82  ASP82       0.3668
     15  OD1       11.3030   37.4280   44.4160 O.co2  82  ASP82      -0.2456
     16  OD2       11.9300   36.3220   46.2120 O.co2  82  ASP82      -0.2456
     17  N         10.3620   36.9690   41.5690 N.am   83  GLY83      -0.1957
     18  CA        11.1060   37.3600   40.3850 C.3    83  GLY83       0.1869
     19  C         10.1750   37.1640   39.2000 C.2    83  GLY83       0.2309
     20  O         10.5760   36.7330   38.1160 O.2    83  GLY83      -0.2863
     21  N          8.9090   39.1880   37.2470 N.3    85  ILE85      -0.1245
     22  CA         9.3710   39.9140   36.0760 C.3    85  ILE85       0.1561
     23  C         10.3920   39.0800   35.3170 C.2    85  ILE85       0.2260
     24  O         10.2810   38.9150   34.0940 O.2    85  ILE85      -0.2867
     25  CB         9.9790   41.2610   36.4750 C.3    85  ILE85       0.0252
     26  CG1        8.8730   42.1450   37.0750 C.3    85  ILE85       0.0019
     27  CG2       10.6680   41.9110   35.2680 C.3    85  ILE85       0.0019
     28  CD1        9.3400   43.5280   37.5220 C.3    85  ILE85       0.0001
     29  N         21.7220   43.9730   45.5860 N.3   150  THR150     -0.1203
     30  CA        20.5620   44.6640   46.1150 C.3   150  THR150      0.1994
     31  C         19.3770   44.4850   45.1840 C.2   150  THR150      0.2618
     32  O         19.4990   43.9040   44.1050 O.2   150  THR150     -0.2717
     33  CB        20.8420   46.1710   46.2800 C.3   150  THR150      0.1784
     34  OG1       19.7150   46.8040   46.8990 O.3   150  THR150     -0.2211
     35  CG2       21.0890   46.8180   44.9290 C.3   150  THR150      0.0376
     36  N         18.2230   44.9740   45.6150 N.am  151  GLY151     -0.1942
     37  CA        17.0400   44.8740   44.7890 C.3   151  GLY151      0.2014
     38  C         16.8930   46.1390   43.9640 C.2   151  GLY151      0.2640
     39  O         17.6820   47.0760   44.1070 O.2   151  GLY151     -0.2714
     40  N         15.8910   46.1630   43.0900 N.am  152  SER152     -0.1935
     41  CA        15.6420   47.3240   42.2520 C.3   152  SER152      0.2055
     42  C         14.6480   48.2600   42.9420 C.2   152  SER152      0.2643
     43  O         13.4340   48.0570   42.8670 O.2   152  SER152     -0.2714
     44  CB        15.1090   46.8810   40.8910 C.3   152  SER152      0.2130
     45  OG        16.1230   46.2160   40.1550 O.3   152  SER152     -0.2179
     46  N         15.1820   49.2780   43.6190 N.am  153  TYR153     -0.1973
     47  CA        14.3740   50.2570   44.3440 C.3   153  TYR153      0.1639
     48  C         14.6520   51.6760   43.8490 C.2   153  TYR153      0.2290
     49  O         15.7980   52.1370   43.8320 O.2   153  TYR153     -0.2864
     50  CB        14.6650   50.1600   45.8450 C.3   153  TYR153      0.0560
     51  CG        14.7620   48.7300   46.3320 C.ar  153  TYR153     -0.0198
     52  CD1       13.7070   47.8320   46.1410 C.ar  153  TYR153     -0.0009
     53  CD2       15.9280   48.2550   46.9360 C.ar  153  TYR153     -0.0009
     54  CE1       13.8120   46.4950   46.5340 C.ar  153  TYR153      0.0417
     55  CE2       16.0420   46.9180   47.3330 C.ar  153  TYR153      0.0417
     56  CZ        14.9820   46.0460   47.1280 C.ar  153  TYR153      0.1957
     57  OH        15.0940   44.7320   47.5150 O.3   153  TYR153     -0.2866
     58  N         22.5430   42.8810   40.5860 N.3   173  ILE173     -0.1245
     59  CA        21.1080   43.0740   40.6710 C.3   173  ILE173      0.1561
     60  C         20.5930   41.8850   39.8580 C.2   173  ILE173      0.2260
     61  O         20.6310   41.8890   38.6160 O.2   173  ILE173     -0.2867
     62  CB        20.6540   44.4090   40.0550 C.3   173  ILE173      0.0252
     63  CG1       21.3100   45.5810   40.7920 C.3   173  ILE173      0.0019
     64  CG2       19.1480   44.5390   40.1880 C.3   173  ILE173      0.0019
     65  CD1       21.0150   46.9430   40.1880 C.3   173  ILE173      0.0001
     66  N         17.3640   40.0980   40.5240 N.3   175  GLY175     -0.1210
     67  CA        15.9350   40.0410   40.2700 C.3   175  GLY175      0.1956
     68  C         15.0370   39.0410   40.9840 C.2   175  GLY175      0.2613
     69  O         13.8670   38.9050   40.6070 O.2   175  GLY175     -0.2717
     70  N         15.5610   38.3230   41.9770 N.am  176  SER176     -0.1938
     71  CA        14.7490   37.3830   42.7590 C.3   176  SER176      0.2055
     72  C         15.1920   37.5210   44.2210 C.2   176  SER176      0.2642
     73  O         16.2420   37.0300   44.6010 O.2   176  SER176     -0.2714
     74  CB        14.9430   35.9440   42.2680 C.3   176  SER176      0.2130
     75  OG        14.0910   35.0470   42.9740 O.3   176  SER176     -0.2179
     76  N         14.3900   38.1880   45.0400 N.am  177  ALA177     -0.1977
     77  CA        14.7520   38.4330   46.4370 C.3   177  ALA177      0.1597
     78  C         15.1390   37.2350   47.2830 C.2   177  ALA177      0.2287
     79  O         16.2110   37.2350   47.8940 O.2   177  ALA177     -0.2864
     80  CB        13.6390   39.2000   47.1280 C.3   177  ALA177      0.0319
     81  N         23.5010   41.2700   50.9690 N.3   192  PHE192     -0.1241
     82  CA        22.3110   41.5470   50.1800 C.3   192  PHE192      0.1605
     83  C         21.4280   42.5690   50.8940 C.2   192  PHE192      0.2264
     84  O         21.0130   42.3580   52.0340 O.2   192  PHE192     -0.2867
     85  CB        21.5280   40.2510   49.9300 C.3   192  PHE192      0.0534
     86  CG        20.2030   40.4660   49.2500 C.ar  192  PHE192     -0.0203
     87  CD1       20.1340   41.1170   48.0170 C.ar  192  PHE192     -0.0042
     88  CD2       19.0190   40.0290   49.8460 C.ar  192  PHE192     -0.0042
     89  CE1       18.8950   41.3300   47.3840 C.ar  192  PHE192     -0.0003
     90  CE2       17.7860   40.2350   49.2270 C.ar  192  PHE192     -0.0003
     91  CZ        17.7250   40.8850   47.9930 C.ar  192  PHE192     -0.0000
     92  N         17.9210   44.9350   50.7830 N.3   194  THR194     -0.1218
     93  CA        16.5790   45.0040   50.2160 C.3   194  THR194      0.1862
     94  C         15.7430   46.0370   50.9770 C.2   194  THR194      0.2287
     95  O         15.4770   45.8850   52.1660 O.2   194  THR194     -0.2866
     96  CB        15.9230   43.6100   50.2640 C.3   194  THR194      0.1770
     97  OG1       14.6370   43.6590   49.6420 O.3   194  THR194     -0.2211
     98  CG2       15.8010   43.1260   51.6950 C.3   194  THR194      0.0375
     99  N         10.2950   46.5790   51.6480 N.3   197  ILE197     -0.1245
    100  CA         9.6500   45.3610   51.1560 C.3   197  ILE197      0.1561
    101  C          8.9600   44.5750   52.2610 C.2   197  ILE197      0.2260
    102  O          9.2870   44.7300   53.4370 O.2   197  ILE197     -0.2867
    103  CB        10.6690   44.4350   50.4630 C.3   197  ILE197      0.0252
    104  CG1       11.9460   44.3460   51.3070 C.3   197  ILE197      0.0019
    105  CG2       10.9510   44.9330   49.0470 C.3   197  ILE197      0.0019
    106  CD1       11.7690   43.6410   52.6410 C.3   197  ILE197      0.0001
@<TRIPOS>BOND
     1    24    23    2
     2    27    25    1
     3    23    22    1
     4    22    25    1
     5    22    21    1
     6    25    26    1
     7    26    28    1
     8    20    19    2
     9    61    60    2
    10     4     3    2
    11     3     2    1
    12    19    18    1
    13     2     1    1
    14     2     5    1
    15    60    59    1
    16    62    64    1
    17    62    59    1
    18    62    63    1
    19     7     6   ar
    20    45    44    1
    21    65    63    1
    22    67    66    1
    23    67    68    1
    24    18    17    1
    25    58    59    1
    26    69    68    2
    27    44    41    1
    28     6     5    1
    29     6     8   ar
    30    68    70   am
    31    17    11   am
    32    12    11    2
    33    70    71    1
    34    11    10    1
    35    41    42    1
    36    41    40    1
    37    74    71    1
    38    74    75    1
    39    71    72    1
    40    43    42    2
    41    42    46   am
    42     9    10    1
    43    40    38   am
    44    10    13    1
    45    46    47    1
    46    49    48    2
    47    48    47    1
    48    38    39    2
    49    38    37    1
    50    32    31    2
    51    72    73    2
    52    72    76   am
    53    47    50    1
    54    15    14   ar
    55    13    14    1
    56    37    36    1
    57    35    33    1
    58    76    77    1
    59    14    16   ar
    60    31    36   am
    61    31    30    1
    62    29    30    1
    63    50    51    1
    64    30    33    1
    65    52    51   ar
    66    52    54   ar
    67    33    34    1
    68    51    53   ar
    69    77    80    1
    70    77    78    1
    71    54    56   ar
    72    53    55   ar
    73    56    55   ar
    74    56    57    1
    75    78    79    2
    76    89    91   ar
    77    89    87   ar
    78    91    90   ar
    79    87    86   ar
    80   105   103    1
    81    90    88   ar
    82    86    88   ar
    83    86    85    1
    84    97    96    1
    85    85    82    1
    86    82    83    1
    87    82    81    1
    88    93    96    1
    89    93    92    1
    90    93    94    1
    91    96    98    1
    92   103   100    1
    93   103   104    1
    94    83    84    2
    95    94    95    2
    96   100    99    1
    97   100   101    1
    98   104   106    1
    99   101   102    2
