@<TRIPOS>MOLECULE
tmp/2p3vB00.pdb
 98 92 0 0 0
SMALL
GASTEIGER

@<TRIPOS>ATOM
      1  N         36.8950   33.1830   30.0950 N.3    81  ILE81      -0.1231
      2  CA        35.9040   33.3290   31.1550 C.3    81  ILE81       0.1692
      3  C         35.4180   34.7680   31.2160 C.2    81  ILE81       0.2592
      4  O         36.1040   35.6510   31.7290 O.2    81  ILE81      -0.2718
      5  CB        36.4580   32.9600   32.5570 C.3    81  ILE81       0.0266
      6  CG1       37.2410   31.6490   32.5060 C.3    81  ILE81       0.0019
      7  CG2       35.2970   32.7980   33.5340 C.3    81  ILE81       0.0020
      8  CD1       37.7950   31.2210   33.8490 C.3    81  ILE81       0.0001
      9  N         34.2260   34.9930   30.6840 N.am   82  ASP82      -0.1960
     10  CA        33.6030   36.3130   30.6830 C.3    82  ASP82       0.1840
     11  C         32.7790   36.3720   31.9720 C.2    82  ASP82       0.2623
     12  O         31.6760   35.8290   32.0330 O.2    82  ASP82      -0.2715
     13  CB        32.6800   36.4340   29.4670 C.3    82  ASP82       0.1450
     14  CG        32.1930   37.8480   29.2300 C.2    82  ASP82       0.3671
     15  OD1       31.7600   38.5140   30.1970 O.co2  82  ASP82      -0.2456
     16  OD2       32.2330   38.2860   28.0590 O.co2  82  ASP82      -0.2456
     17  N         33.3090   37.0210   32.9990 N.am   83  GLY83      -0.1940
     18  CA        32.5900   37.0920   34.2560 C.3    83  GLY83       0.2014
     19  C         33.4190   36.3670   35.2910 C.2    83  GLY83       0.2640
     20  O         32.9070   35.6040   36.1020 O.2    83  GLY83      -0.2714
     21  N         34.7230   36.6070   35.2470 N.am   84  THR84      -0.1936
     22  CA        35.6580   35.9730   36.1610 C.3    84  THR84       0.2028
     23  C         35.2620   36.1350   37.6250 C.2    84  THR84       0.2642
     24  O         35.3370   35.1810   38.4100 O.2    84  THR84      -0.2714
     25  CB        37.0710   36.5440   35.9650 C.3    84  THR84       0.1808
     26  OG1       37.4950   36.3060   34.6180 O.3    84  THR84      -0.2208
     27  CG2       38.0460   35.8960   36.9240 C.3    84  THR84       0.0379
     28  N         34.8420   37.3390   37.9940 N.am   85  ILE85      -0.1963
     29  CA        34.4650   37.6000   39.3710 C.3    85  ILE85       0.1727
     30  C         33.2990   36.7420   39.8150 C.2    85  ILE85       0.2616
     31  O         33.3010   36.2390   40.9380 O.2    85  ILE85      -0.2715
     32  CB        34.1490   39.0990   39.5950 C.3    85  ILE85       0.0290
     33  CG1       35.4610   39.8980   39.5620 C.3    85  ILE85       0.0022
     34  CG2       33.4490   39.2990   40.9380 C.3    85  ILE85       0.0023
     35  CD1       35.2990   41.3850   39.6850 C.3    85  ILE85       0.0001
     36  N         32.3040   36.5730   38.9500 N.am   86  ASN86      -0.1972
     37  CA        31.1600   35.7320   39.2900 C.3    86  ASN86       0.1688
     38  C         31.6690   34.3080   39.4520 C.2    86  ASN86       0.2292
     39  O         31.3160   33.6020   40.4060 O.2    86  ASN86      -0.2864
     40  CB        30.1090   35.7530   38.1810 C.3    86  ASN86       0.1181
     41  CG        29.1960   36.9450   38.2730 C.2    86  ASN86       0.2629
     42  OD1       29.1120   37.5820   39.3120 O.2    86  ASN86      -0.2716
     43  ND2       28.4900   37.2410   37.1960 N.am   86  ASN86      -0.0877
     44  N         26.6590   46.7160   32.7450 N.3   151  GLY151     -0.1210
     45  CA        27.7650   46.2030   33.5300 C.3   151  GLY151      0.1956
     46  C         28.0220   47.0430   34.7670 C.2   151  GLY151      0.2613
     47  O         27.3180   48.0150   35.0180 O.2   151  GLY151     -0.2717
     48  N         29.0340   46.6730   35.5440 N.am  152  SER152     -0.1938
     49  CA        29.3690   47.4040   36.7620 C.3   152  SER152      0.2055
     50  C         30.5860   48.3010   36.5730 C.2   152  SER152      0.2643
     51  O         31.7200   47.9240   36.8780 O.2   152  SER152     -0.2714
     52  CB        29.6140   46.4300   37.9210 C.3   152  SER152      0.2130
     53  OG        28.4170   45.7710   38.3060 O.3   152  SER152     -0.2179
     54  N         30.3280   49.4980   36.0640 N.am  153  TYR153     -0.1973
     55  CA        31.3660   50.4880   35.8220 C.3   153  TYR153      0.1639
     56  C         31.2240   51.5840   36.8800 C.2   153  TYR153      0.2290
     57  O         30.1370   52.1290   37.0780 O.2   153  TYR153     -0.2864
     58  CB        31.1830   51.0840   34.4240 C.3   153  TYR153      0.0560
     59  CG        30.7680   50.0630   33.3820 C.ar  153  TYR153     -0.0198
     60  CD1       31.6310   49.0350   33.0010 C.ar  153  TYR153     -0.0009
     61  CD2       29.4990   50.1100   32.7960 C.ar  153  TYR153     -0.0009
     62  CE1       31.2410   48.0760   32.0660 C.ar  153  TYR153      0.0417
     63  CE2       29.0980   49.1570   31.8610 C.ar  153  TYR153      0.0417
     64  CZ        29.9730   48.1440   31.5020 C.ar  153  TYR153      0.1957
     65  OH        29.5870   47.1910   30.5900 O.3   153  TYR153     -0.2866
     66  N         21.8730   43.5620   36.4670 N.3   173  ILE173     -0.1245
     67  CA        23.3360   43.5900   36.4230 C.3   173  ILE173      0.1561
     68  C         23.7280   42.1630   36.8280 C.2   173  ILE173      0.2260
     69  O         23.8770   41.8460   38.0190 O.2   173  ILE173     -0.2867
     70  CB        23.9370   44.6210   37.4160 C.3   173  ILE173      0.0252
     71  CG1       23.3680   46.0170   37.1320 C.3   173  ILE173      0.0019
     72  CG2       25.4530   44.6560   37.2740 C.3   173  ILE173      0.0019
     73  CD1       23.8440   47.0910   38.0980 C.3   173  ILE173      0.0001
     74  N         26.5040   40.1230   35.2720 N.3   175  GLY175     -0.1225
     75  CA        27.9150   39.8220   35.3920 C.3   175  GLY175      0.1811
     76  C         28.6900   39.2860   34.2050 C.2   175  GLY175      0.2280
     77  O         29.9260   39.2480   34.2550 O.2   175  GLY175     -0.2866
     78  N         29.1950   39.9930   30.2750 N.3   177  ALA177     -0.1245
     79  CA        28.9410   40.8200   29.0970 C.3   177  ALA177      0.1562
     80  C         28.5410   40.0130   27.8670 C.2   177  ALA177      0.2260
     81  O         27.5720   40.3420   27.1950 O.2   177  ALA177     -0.2867
     82  CB        30.1800   41.6800   28.7850 C.3   177  ALA177      0.0290
     83  N         34.9150   48.7650   26.6200 N.3   197  ILE197     -0.1245
     84  CA        34.8970   47.3210   26.3990 C.3   197  ILE197      0.1561
     85  C         35.7800   46.8480   25.2370 C.2   197  ILE197      0.2260
     86  O         36.0440   47.5970   24.2940 O.2   197  ILE197     -0.2867
     87  CB        33.4300   46.8300   26.1810 C.3   197  ILE197      0.0252
     88  CG1       33.3420   45.3070   26.3320 C.3   197  ILE197      0.0019
     89  CG2       32.9310   47.2540   24.8150 C.3   197  ILE197      0.0019
     90  CD1       33.4730   44.8290   27.7560 C.3   197  ILE197      0.0001
     91  N         34.8130   40.5150   24.4890 N.3   201  ASP201     -0.1239
     92  CA        33.6880   40.5430   25.4170 C.3   201  ASP201      0.1674
     93  C         32.3790   40.7040   24.6300 C.2   201  ASP201      0.2266
     94  O         31.2980   40.4720   25.1730 O.2   201  ASP201     -0.2867
     95  CB        33.8280   41.7200   26.4040 C.3   201  ASP201      0.1410
     96  CG        34.9330   41.5120   27.4360 C.2   201  ASP201      0.3668
     97  OD1       35.6980   42.4680   27.6950 O.co2 201  ASP201     -0.2456
     98  OD2       35.0260   40.4030   28.0030 O.co2 201  ASP201     -0.2456
@<TRIPOS>BOND
     1    86    85    2
     2    91    92    1
     3    93    94    2
     4    93    92    1
     5    89    87    1
     6    85    84    1
     7    92    95    1
     8    87    88    1
     9    87    84    1
    10    88    90    1
    11    84    83    1
    12    95    96    1
    13    81    80    2
    14    96    97   ar
    15    96    98   ar
    16    80    79    1
    17    16    14   ar
    18    82    79    1
    19    79    78    1
    20    14    13    1
    21    14    15   ar
    22    13    10    1
    23     1     2    1
    24    65    64    1
    25    10     9    1
    26    10    11    1
    27     9     3   am
    28     2     3    1
    29     2     5    1
    30     3     4    2
    31    64    63   ar
    32    64    62   ar
    33    63    61   ar
    34    11    12    2
    35    11    17   am
    36    62    60   ar
    37     6     5    1
    38     6     8    1
    39     5     7    1
    40    44    45    1
    41    61    59   ar
    42    17    18    1
    43    60    59   ar
    44    59    58    1
    45    45    46    1
    46    76    77    2
    47    76    75    1
    48    18    19    1
    49    58    55    1
    50    26    25    1
    51    46    47    2
    52    46    48   am
    53    21    19   am
    54    21    22    1
    55    74    75    1
    56    19    20    2
    57    48    49    1
    58    55    54    1
    59    55    56    1
    60    25    22    1
    61    25    27    1
    62    54    50   am
    63    22    23    1
    64    67    66    1
    65    67    68    1
    66    67    70    1
    67    50    49    1
    68    50    51    2
    69    49    52    1
    70    68    69    2
    71    56    57    2
    72    71    70    1
    73    71    73    1
    74    43    41   am
    75    72    70    1
    76    23    28   am
    77    23    24    2
    78    52    53    1
    79    28    29    1
    80    40    41    1
    81    40    37    1
    82    41    42    2
    83    36    37    1
    84    36    30   am
    85    37    38    1
    86    29    32    1
    87    29    30    1
    88    38    39    2
    89    33    32    1
    90    33    35    1
    91    32    34    1
    92    30    31    2
