@<TRIPOS>MOLECULE
tmp/2p40A00.pdb
 116 111 0 0 0
SMALL
GASTEIGER

@<TRIPOS>ATOM
      1  N          9.5950   49.8800  -14.4930 N.3     8  LYS8       -0.1245
      2  CA        10.9390   49.8050  -13.9500 C.3     8  LYS8        0.1561
      3  C         12.0040   50.3180  -14.9280 C.2     8  LYS8        0.2260
      4  O         12.9230   51.0340  -14.5210 O.2     8  LYS8       -0.2867
      5  CB        11.2410   48.3850  -13.4870 C.3     8  LYS8        0.0271
      6  CG        12.6100   48.2040  -12.8660 C.3     8  LYS8        0.0035
      7  CD        12.7810   48.9460  -11.5320 C.3     8  LYS8        0.0206
      8  CE        13.8940   48.2900  -10.7010 C.3     8  LYS8        0.1093
      9  NZ        14.1860   48.9970   -9.4140 N.3     8  LYS8       -0.1314
     10  N         11.5630   54.1460  -15.3120 N.3    11  LEU11      -0.1231
     11  CA        12.1500   54.7330  -14.1130 C.3    11  LEU11       0.1693
     12  C         13.6780   54.7740  -14.2100 C.2    11  LEU11       0.2592
     13  O         14.2930   55.8180  -13.9840 O.2    11  LEU11      -0.2718
     14  CB        11.7100   53.9410  -12.8770 C.3    11  LEU11       0.0284
     15  CG        12.3590   54.2870  -11.5350 C.3    11  LEU11       0.0019
     16  CD1       11.7550   55.5530  -10.9670 C.3    11  LEU11       0.0001
     17  CD2       12.2230   53.1420  -10.5550 C.3    11  LEU11       0.0001
     18  N         14.2690   53.6330  -14.5640 N.am   12  ASN12      -0.1974
     19  CA        15.7190   53.5110  -14.7310 C.3    12  ASN12       0.1688
     20  C         16.3270   54.3870  -15.8210 C.2    12  ASN12       0.2292
     21  O         17.5410   54.5520  -15.8570 O.2    12  ASN12      -0.2864
     22  CB        16.1250   52.0530  -14.9850 C.3    12  ASN12       0.1181
     23  CG        16.3250   51.2580  -13.7010 C.2    12  ASN12       0.2629
     24  OD1       16.4960   51.8240  -12.6240 O.2    12  ASN12      -0.2716
     25  ND2       16.3120   49.9450  -13.8160 N.am   12  ASN12      -0.0877
     26  N         15.2090   57.6270  -16.4190 N.3    14  LEU14      -0.1231
     27  CA        15.0730   59.0230  -16.0140 C.3    14  LEU14       0.1693
     28  C         16.4090   59.7070  -15.7120 C.2    14  LEU14       0.2593
     29  O         17.3440   59.0800  -15.2100 O.2    14  LEU14      -0.2718
     30  CB        14.1470   59.1220  -14.7930 C.3    14  LEU14       0.0284
     31  CG        12.6610   59.5290  -14.8770 C.3    14  LEU14       0.0019
     32  CD1       12.0000   59.2920  -16.2430 C.3    14  LEU14       0.0001
     33  CD2       11.8580   58.8640  -13.7450 C.3    14  LEU14       0.0001
     34  N         16.4850   61.0000  -16.0270 N.am   15  GLY15      -0.1942
     35  CA        17.6080   61.8460  -15.6270 C.3    15  GLY15       0.2014
     36  C         17.6990   61.9190  -14.1170 C.2    15  GLY15       0.2638
     37  O         16.7310   61.6040  -13.4130 O.2    15  GLY15      -0.2714
     38  N         18.8570   62.3430  -13.6140 N.am   16  LYS16      -0.1977
     39  CA        19.1150   62.3180  -12.1730 C.3    16  LYS16       0.1596
     40  C         18.1680   63.2450  -11.4160 C.2    16  LYS16       0.2287
     41  O         17.6270   62.8740  -10.3720 O.2    16  LYS16      -0.2864
     42  CB        20.5790   62.6700  -11.8500 C.3    16  LYS16       0.0298
     43  CG        21.0990   62.0310  -10.5570 C.3    16  LYS16       0.0038
     44  CD        22.2140   62.8600   -9.8910 C.3    16  LYS16       0.0206
     45  CE        22.6440   62.2630   -8.5220 C.3    16  LYS16       0.1093
     46  NZ        23.7410   63.0520   -7.8580 N.3    16  LYS16      -0.1314
     47  N         14.4070   61.9960  -11.7730 N.3    19  PHE19      -0.1227
     48  CA        14.1820   60.9000  -10.8240 C.3    19  PHE19       0.1736
     49  C         13.8380   61.4120   -9.4250 C.2    19  PHE19       0.2595
     50  O         12.8440   60.9910   -8.8350 O.2    19  PHE19      -0.2718
     51  CB        15.3790   59.9390  -10.7490 C.3    19  PHE19       0.0547
     52  CG        15.2680   58.9230   -9.6320 C.ar   19  PHE19      -0.0202
     53  CD1       14.5220   57.7620   -9.8010 C.ar   19  PHE19      -0.0042
     54  CD2       15.8850   59.1440   -8.4030 C.ar   19  PHE19      -0.0042
     55  CE1       14.4010   56.8390   -8.7820 C.ar   19  PHE19      -0.0003
     56  CE2       15.7650   58.2230   -7.3780 C.ar   19  PHE19      -0.0003
     57  CZ        15.0200   57.0700   -7.5690 C.ar   19  PHE19      -0.0000
     58  N         14.6670   62.3110   -8.8990 N.am   20  GLN20      -0.1979
     59  CA        14.4140   62.9420   -7.6070 C.3    20  GLN20       0.1601
     60  C         13.0080   63.5190   -7.4750 C.2    20  GLN20       0.2287
     61  O         12.3760   63.3550   -6.4410 O.2    20  GLN20      -0.2864
     62  CB        15.4560   64.0240   -7.3170 C.3    20  GLN20       0.0394
     63  CG        16.3810   63.7110   -6.1460 C.3    20  GLN20       0.0908
     64  CD        17.3170   62.5460   -6.4270 C.2    20  GLN20       0.2608
     65  OE1       17.3070   61.5370   -5.7080 O.2    20  GLN20      -0.2717
     66  NE2       18.1290   62.6740   -7.4840 N.am   20  GLN20      -0.0878
     67  N         10.2670   60.5620   -7.5030 N.3    23  LYS23      -0.1245
     68  CA        10.3120   59.7900   -6.2620 C.3    23  LYS23       0.1561
     69  C          9.2990   60.2730   -5.2060 C.2    23  LYS23       0.2260
     70  O          8.6430   59.4650   -4.5630 O.2    23  LYS23      -0.2867
     71  CB        11.7370   59.8040   -5.7060 C.3    23  LYS23       0.0271
     72  CG        11.9560   58.8850   -4.5130 C.3    23  LYS23       0.0035
     73  CD        13.4220   58.5630   -4.3750 C.3    23  LYS23       0.0206
     74  CE        13.7310   57.8820   -3.0680 C.3    23  LYS23       0.1093
     75  NZ        15.2030   57.6680   -3.0080 N.3    23  LYS23      -0.1314
     76  N         15.9630   44.8260   -0.1250 N.3   143  GLU143     -0.1231
     77  CA        16.8180   45.8710   -0.6850 C.3   143  GLU143      0.1699
     78  C         16.5810   45.9650   -2.1740 C.2   143  GLU143      0.2593
     79  O         16.7210   44.9760   -2.8890 O.2   143  GLU143     -0.2718
     80  CB        18.3070   45.6460   -0.3660 C.3   143  GLU143      0.0402
     81  CG        18.6960   46.0340    1.0810 C.3   143  GLU143      0.1161
     82  CD        18.1490   47.4050    1.4960 C.2   143  GLU143      0.3649
     83  OE1       18.7580   48.4240    1.1080 O.co2 143  GLU143     -0.2457
     84  OE2       17.1150   47.4700    2.2060 O.co2 143  GLU143     -0.2457
     85  N         16.2030   47.1510   -2.6330 N.am  144  SER144     -0.1938
     86  CA        15.7480   47.2980   -3.9950 C.3   144  SER144      0.2055
     87  C         16.9430   47.3010   -4.9440 C.2   144  SER144      0.2644
     88  O         18.0670   47.5430   -4.5270 O.2   144  SER144     -0.2714
     89  CB        14.8510   48.5310   -4.1530 C.3   144  SER144      0.2130
     90  OG        15.6180   49.6980   -4.1610 O.3   144  SER144     -0.2179
     91  N         16.6990   46.9910   -6.2100 N.am  145  SER145     -0.1936
     92  CA        17.7660   46.8980   -7.1970 C.3   145  SER145      0.2040
     93  C         17.2580   47.3720   -8.5560 C.2   145  SER145      0.2485
     94  O         16.0980   47.1130   -8.8870 O.2   145  SER145     -0.2729
     95  CB        18.2040   45.4460   -7.3020 C.3   145  SER145      0.2129
     96  OG        19.2160   45.2980   -8.2640 O.3   145  SER145     -0.2179
     97  N         18.1070   48.0700   -9.3460 N.am  146  PRO146     -0.2726
     98  CA        17.7240   48.4660  -10.7220 C.3   146  PRO146      0.1402
     99  C         17.4080   47.2520  -11.5770 C.2   146  PRO146      0.2269
    100  O         16.5790   47.3330  -12.4730 O.2   146  PRO146     -0.2865
    101  CB        18.9680   49.1670  -11.2690 C.3   146  PRO146      0.0296
    102  CG        19.7280   49.6040  -10.0540 C.3   146  PRO146      0.0237
    103  CD        19.4570   48.5380   -8.9990 C.3   146  PRO146      0.0939
    104  N          9.4280   55.5740   -6.3630 N.3   208  SER208     -0.1202
    105  CA        10.6000   54.8800   -6.9040 C.3   208  SER208      0.2020
    106  C         10.6530   53.3990   -6.5320 C.2   208  SER208      0.2619
    107  O         11.6180   52.7180   -6.8840 O.2   208  SER208     -0.2717
    108  CB        11.8760   55.5760   -6.4530 C.3   208  SER208      0.2103
    109  OG        12.0000   55.4580   -5.0600 O.3   208  SER208     -0.2182
    110  N          9.6330   52.9100   -5.8190 N.am  209  THR209     -0.1952
    111  CA         9.5130   51.4830   -5.5170 C.3   209  THR209      0.1897
    112  C          8.1050   50.9770   -5.7360 C.2   209  THR209      0.2313
    113  O          7.1290   51.6830   -5.4930 O.2   209  THR209     -0.2863
    114  CB         9.9340   51.1070   -4.0650 C.3   209  THR209      0.1794
    115  OG1        9.6060   49.7220   -3.8290 O.3   209  THR209     -0.2208
    116  CG2        9.2070   51.9980   -2.9830 C.3   209  THR209      0.0378
@<TRIPOS>BOND
     1    26    27    1
     2    32    31    1
     3    34    28   am
     4    34    35    1
     5    27    28    1
     6    27    30    1
     7    21    20    2
     8    20    19    1
     9    28    29    2
    10    35    36    1
    11    10    11    1
    12    22    19    1
    13    22    23    1
    14     3     4    2
    15     3     2    1
    16    31    30    1
    17    31    33    1
    18    19    18    1
    19    18    12   am
    20     1     2    1
    21    12    11    1
    22    12    13    2
    23    36    38   am
    24    36    37    2
    25    11    14    1
    26     2     5    1
    27    25    23   am
    28    23    24    2
    29    38    39    1
    30     5     6    1
    31    14    15    1
    32     6     7    1
    33   100    99    2
    34    39    42    1
    35    39    40    1
    36    42    43    1
    37    47    48    1
    38    99    98    1
    39    15    16    1
    40    15    17    1
    41     7     8    1
    42    40    41    2
    43   101    98    1
    44   101   102    1
    45    48    51    1
    46    48    49    1
    47    51    52    1
    48    98    97    1
    49     8     9    1
    50    43    44    1
    51   102   103    1
    52    44    45    1
    53    53    52   ar
    54    53    55   ar
    55    52    54   ar
    56    49    58   am
    57    49    50    2
    58    97   103    1
    59    97    93   am
    60    58    59    1
    61    94    93    2
    62    55    57   ar
    63    93    92    1
    64    45    46    1
    65    54    56   ar
    66    96    95    1
    67    59    60    1
    68    59    62    1
    69    57    56   ar
    70    67    68    1
    71    66    64   am
    72    60    61    2
    73    62    63    1
    74    95    92    1
    75    92    91    1
    76   105   106    1
    77   105   108    1
    78   105   104    1
    79   107   106    2
    80   106   110   am
    81   108   109    1
    82    64    63    1
    83    64    65    2
    84    68    71    1
    85    68    69    1
    86    91    87   am
    87   110   111    1
    88   112   111    1
    89   112   113    2
    90    71    72    1
    91   111   114    1
    92    69    70    2
    93    87    88    2
    94    87    86    1
    95    72    73    1
    96    73    74    1
    97    90    89    1
    98    89    86    1
    99   114   115    1
   100   114   116    1
   101    86    85    1
   102    74    75    1
   103    79    78    2
   104    85    78   am
   105    78    77    1
   106    77    80    1
   107    77    76    1
   108    80    81    1
   109    81    82    1
   110    83    82   ar
   111    82    84   ar
