@<TRIPOS>MOLECULE
tmp/2p41A01.pdb
 96 92 0 0 0
SMALL
GASTEIGER

@<TRIPOS>ATOM
      1  N        -16.1020   85.9530    6.2580 N.3    76  GLY76      -0.1225
      2  CA       -14.8010   86.0180    6.9440 C.3    76  GLY76       0.1811
      3  C        -13.7780   85.1230    6.2440 C.2    76  GLY76       0.2280
      4  O        -13.1310   84.2640    6.8760 O.2    76  GLY76      -0.2866
      5  N        -10.8890   85.5820    4.8140 N.3    78  GLY78      -0.1225
      6  CA        -9.4240   85.8140    4.9760 C.3    78  GLY78       0.1811
      7  C         -8.7080   85.6110    3.6540 C.2    78  GLY78       0.2280
      8  O         -9.1070   86.1450    2.5990 O.2    78  GLY78      -0.2866
      9  N        -14.3940   89.4530    3.2930 N.3    99  THR99      -0.1203
     10  CA       -13.5020   89.5440    4.4580 C.3    99  THR99       0.1994
     11  C        -13.0590   90.9730    4.7170 C.2    99  THR99       0.2617
     12  O        -13.1000   91.8070    3.8260 O.2    99  THR99      -0.2717
     13  CB       -12.2750   88.5640    4.3060 C.3    99  THR99       0.1784
     14  OG1      -11.7280   88.2760    5.6060 O.3    99  THR99      -0.2211
     15  CG2      -11.1930   89.1170    3.3460 C.3    99  THR99       0.0376
     16  N        -12.6670   91.2600    5.9590 N.am  100  LYS100     -0.1979
     17  CA       -12.1740   92.6060    6.3230 C.3   100  LYS100      0.1596
     18  C        -10.9720   93.0550    5.5170 C.2   100  LYS100      0.2287
     19  O        -10.9530   94.1680    4.9520 O.2   100  LYS100     -0.2864
     20  CB       -11.7980   92.6700    7.8190 C.3   100  LYS100      0.0298
     21  CG       -12.9270   92.9130    8.7670 C.3   100  LYS100      0.0038
     22  CD       -12.3650   92.9860   10.2190 C.3   100  LYS100      0.0206
     23  CE       -13.4280   93.3480   11.2170 C.3   100  LYS100      0.1093
     24  NZ       -12.8950   93.2540   12.6190 N.3   100  LYS100     -0.1314
     25  N         -5.2940   92.5800    9.0170 N.3   105  HIS105     -0.1226
     26  CA        -6.0430   91.3660    8.6800 C.3   105  HIS105      0.1752
     27  C         -5.6570   90.7760    7.3350 C.2   105  HIS105      0.2595
     28  O         -5.2280   91.4820    6.4300 O.2   105  HIS105     -0.2718
     29  CB        -7.5640   91.6080    8.7340 C.3   105  HIS105      0.0759
     30  CG        -8.0300   92.1380   10.0520 C.ar  105  HIS105      0.0818
     31  ND1       -8.1410   91.3470   11.1710 N.ar  105  HIS105     -0.2268
     32  CD2       -8.3390   93.3970   10.4460 C.ar  105  HIS105      0.1154
     33  CE1       -8.5300   92.0870   12.1950 C.ar  105  HIS105      0.1986
     34  NE2       -8.6570   93.3350   11.7820 N.ar  105  HIS105     -0.2212
     35  N         -5.8240   89.4620    7.2100 N.am  106  GLU106     -0.1979
     36  CA        -5.4160   88.7550    6.0110 C.3   106  GLU106      0.1602
     37  C         -6.1980   89.2010    4.7850 C.2   106  GLU106      0.2287
     38  O         -7.4330   89.2520    4.8030 O.2   106  GLU106     -0.2864
     39  CB        -5.6090   87.2470    6.2100 C.3   106  GLU106      0.0415
     40  CG        -4.6690   86.6510    7.2730 C.3   106  GLU106      0.1163
     41  CD        -3.1930   86.6760    6.8600 C.2   106  GLU106      0.3649
     42  OE1       -2.8660   86.8270    5.6530 O.co2 106  GLU106     -0.2457
     43  OE2       -2.3360   86.5370    7.7640 O.co2 106  GLU106     -0.2457
     44  N        -14.6380   94.3860    3.3990 N.3   125  VAL125     -0.1231
     45  CA       -16.0520   94.1690    3.6900 C.3   125  VAL125      0.1692
     46  C        -16.2530   93.8940    5.1800 C.2   125  VAL125      0.2592
     47  O        -15.5390   93.0660    5.7590 O.2   125  VAL125     -0.2718
     48  CB       -16.5960   92.9680    2.8530 C.3   125  VAL125      0.0266
     49  CG1      -18.0700   92.6800    3.2010 C.3   125  VAL125      0.0020
     50  CG2      -16.4560   93.2710    1.3460 C.3   125  VAL125      0.0020
     51  N        -17.2310   94.5640    5.7870 N.am  126  ASP126     -0.1960
     52  CA       -17.7220   94.1750    7.1050 C.3   126  ASP126      0.1840
     53  C        -19.0150   93.3720    6.9160 C.2   126  ASP126      0.2622
     54  O        -20.0540   93.9520    6.5810 O.2   126  ASP126     -0.2715
     55  CB       -17.9900   95.4410    7.9290 C.3   126  ASP126      0.1450
     56  CG       -18.5390   95.1370    9.3190 C.2   126  ASP126      0.3671
     57  OD1      -18.8370   93.9710    9.6360 O.co2 126  ASP126     -0.2456
     58  OD2      -18.6820   96.0900   10.0970 O.co2 126  ASP126     -0.2456
     59  N        -18.9500   92.0560    7.1350 N.am  127  VAL127     -0.1963
     60  CA       -20.0920   91.1980    6.8130 C.3   127  VAL127      0.1727
     61  C        -21.3370   91.5000    7.6660 C.2   127  VAL127      0.2616
     62  O        -22.4450   91.1380    7.2750 O.2   127  VAL127     -0.2715
     63  CB       -19.7320   89.6910    6.8730 C.3   127  VAL127      0.0290
     64  CG1      -18.6310   89.3600    5.8280 C.3   127  VAL127      0.0023
     65  CG2      -19.3340   89.2720    8.2800 C.3   127  VAL127      0.0023
     66  N        -21.1590   92.1710    8.8130 N.am  128  PHE128     -0.1974
     67  CA       -22.3150   92.5470    9.6360 C.3   128  PHE128      0.1639
     68  C        -23.1770   93.6420    9.0160 C.2   128  PHE128      0.2290
     69  O        -24.3540   93.8130    9.3960 O.2   128  PHE128     -0.2864
     70  CB       -21.8720   92.9120   11.0690 C.3   128  PHE128      0.0560
     71  CG       -21.3470   91.7510   11.8290 C.ar  128  PHE128     -0.0200
     72  CD1      -19.9950   91.4030   11.7660 C.ar  128  PHE128     -0.0042
     73  CD2      -22.2170   90.9710   12.6210 C.ar  128  PHE128     -0.0042
     74  CE1      -19.5020   90.2970   12.4930 C.ar  128  PHE128     -0.0003
     75  CE2      -21.7340   89.8710   13.3300 C.ar  128  PHE128     -0.0003
     76  CZ       -20.3920   89.5330   13.2720 C.ar  128  PHE128     -0.0000
     77  N        -16.3620   81.6740    9.3850 N.3   141  ASP141     -0.1225
     78  CA       -15.2390   81.3040   10.2510 C.3   141  ASP141      0.1805
     79  C        -14.7770   82.5350   11.0560 C.2   141  ASP141      0.2598
     80  O        -13.5860   82.8380   11.1130 O.2   141  ASP141     -0.2718
     81  CB       -14.0980   80.7530    9.3790 C.3   141  ASP141      0.1424
     82  CG       -13.1050   79.9050   10.1670 C.2   141  ASP141      0.3668
     83  OD1      -13.4670   79.3800   11.2480 O.co2 141  ASP141     -0.2456
     84  OD2      -11.9590   79.7390    9.6700 O.co2 141  ASP141     -0.2456
     85  N        -15.7240   83.2460   11.6610 N.am  142  ILE142     -0.1966
     86  CA       -15.4170   84.5100   12.3430 C.3   142  ILE142      0.1727
     87  C        -15.5190   84.2700   13.8450 C.2   142  ILE142      0.2616
     88  O        -16.4290   83.5750   14.2970 O.2   142  ILE142     -0.2715
     89  CB       -16.4190   85.6050   11.9180 C.3   142  ILE142      0.0290
     90  CG1      -16.1730   85.9550   10.4350 C.3   142  ILE142      0.0022
     91  CG2      -16.2870   86.8510   12.8180 C.3   142  ILE142      0.0023
     92  CD1      -17.2410   86.8620    9.8320 C.3   142  ILE142      0.0001
     93  N        -14.6100   84.8640   14.6060 N.am  143  GLY143     -0.1955
     94  CA       -14.7950   84.9210   16.0780 C.3   143  GLY143      0.1869
     95  C        -13.4690   85.2920   16.7020 C.2   143  GLY143      0.2309
     96  O        -12.5210   84.5090   16.6680 O.2   143  GLY143     -0.2863
@<TRIPOS>BOND
     1    50    48    1
     2     8     7    2
     3    48    49    1
     4    48    45    1
     5     9    10    1
     6    15    13    1
     7    44    45    1
     8     7     6    1
     9    45    46    1
    10    12    11    2
    11    13    10    1
    12    13    14    1
    13    10    11    1
    14    11    16   am
    15    37    38    2
    16    37    36    1
    17     5     6    1
    18    19    18    2
    19    46    47    2
    20    46    51   am
    21    18    17    1
    22    42    41   ar
    23    51    52    1
    24    64    63    1
    25    16    17    1
    26    36    39    1
    27    36    35    1
    28    39    40    1
    29     3     4    2
    30     3     2    1
    31     1     2    1
    32    17    20    1
    33    28    27    2
    34    54    53    2
    35    60    63    1
    36    60    59    1
    37    60    61    1
    38    41    40    1
    39    41    43   ar
    40    63    65    1
    41    53    52    1
    42    53    59   am
    43    52    55    1
    44    35    27   am
    45    62    61    2
    46    27    26    1
    47    61    66   am
    48    20    21    1
    49    55    56    1
    50    26    29    1
    51    26    25    1
    52    29    30    1
    53    21    22    1
    54    66    67    1
    55    68    69    2
    56    68    67    1
    57    56    57   ar
    58    56    58   ar
    59    81    82    1
    60    81    78    1
    61    77    78    1
    62    67    70    1
    63    84    82   ar
    64    92    90    1
    65    30    32   ar
    66    30    31   ar
    67    82    83   ar
    68    22    23    1
    69    78    79    1
    70    90    89    1
    71    32    34   ar
    72    79    80    2
    73    79    85   am
    74    70    71    1
    75    31    33   ar
    76    23    24    1
    77    85    86    1
    78    72    71   ar
    79    72    74   ar
    80    34    33   ar
    81    71    73   ar
    82    89    86    1
    83    89    91    1
    84    86    87    1
    85    74    76   ar
    86    73    75   ar
    87    76    75   ar
    88    87    88    2
    89    87    93   am
    90    93    94    1
    91    94    95    1
    92    96    95    2
