@<TRIPOS>MOLECULE
tmp/2p4bA00.pdb
 97 87 0 0 0
SMALL
GASTEIGER

@<TRIPOS>ATOM
      1  N         61.1700   56.6860   60.0870 N.3    83  VAL83      -0.1231
      2  CA        62.6100   56.6610   60.2580 C.3    83  VAL83       0.1692
      3  C         63.0220   55.4920   61.1270 C.2    83  VAL83       0.2592
      4  O         62.3560   55.1590   62.1070 O.2    83  VAL83      -0.2718
      5  CB        63.1190   57.9670   60.9080 C.3    83  VAL83       0.0266
      6  CG1       62.7840   59.1530   60.0150 C.3    83  VAL83       0.0020
      7  CG2       62.4930   58.1420   62.2880 C.3    83  VAL83       0.0020
      8  N         64.1220   54.8630   60.7510 N.am   84  ASP84      -0.1974
      9  CA        64.6400   53.7390   61.5010 C.3    84  ASP84       0.1709
     10  C         63.6590   52.5890   61.6260 C.2    84  ASP84       0.2293
     11  O         63.4590   52.0190   62.6990 O.2    84  ASP84      -0.2864
     12  CB        65.1300   54.2250   62.8690 C.3    84  ASP84       0.1436
     13  CG        66.2620   55.2400   62.7340 C.2    84  ASP84       0.3671
     14  OD1       67.2360   54.9100   62.0240 O.co2  84  ASP84      -0.2456
     15  OD2       66.1840   56.3520   63.3150 O.co2  84  ASP84      -0.2456
     16  N         76.0040   48.9220   62.0680 N.3   156  GLU156     -0.1245
     17  CA        74.5840   48.6780   62.2850 C.3   156  GLU156      0.1567
     18  C         74.0940   47.5730   61.3620 C.2   156  GLU156      0.2260
     19  O         74.5540   47.4290   60.2290 O.2   156  GLU156     -0.2867
     20  CB        73.8090   49.9720   62.0200 C.3   156  GLU156      0.0388
     21  CG        72.5850   50.1780   62.8740 C.3   156  GLU156      0.1160
     22  CD        72.2880   51.6540   63.0750 C.2   156  GLU156      0.3649
     23  OE1       73.0880   52.3270   63.7630 O.co2 156  GLU156     -0.2457
     24  OE2       71.2690   52.1490   62.5450 O.co2 156  GLU156     -0.2457
     25  N         70.2050   79.1570   70.1620 N.3   209  LEU209     -0.1245
     26  CA        70.4540   78.0250   71.0480 C.3   209  LEU209      0.1561
     27  C         69.6390   78.2280   72.3340 C.2   209  LEU209      0.2260
     28  O         69.3010   79.3600   72.6900 O.2   209  LEU209     -0.2867
     29  CB        71.9580   77.9250   71.3550 C.3   209  LEU209      0.0270
     30  CG        72.8940   77.4900   70.2090 C.3   209  LEU209      0.0019
     31  CD1       74.3250   77.9630   70.4600 C.3   209  LEU209      0.0001
     32  CD2       72.8660   75.9840   70.0790 C.3   209  LEU209      0.0001
     33  N         72.9510   79.8560   66.1490 N.3   217  ILE217     -0.1245
     34  CA        73.7130   78.7730   65.5480 C.3   217  ILE217      0.1561
     35  C         73.1850   78.6170   64.1350 C.2   217  ILE217      0.2260
     36  O         71.9800   78.6650   63.9160 O.2   217  ILE217     -0.2867
     37  CB        73.5480   77.4420   66.3150 C.3   217  ILE217      0.0252
     38  CG1       74.5180   76.4050   65.7460 C.3   217  ILE217      0.0019
     39  CG2       72.1220   76.9500   66.2200 C.3   217  ILE217      0.0019
     40  CD1       74.5120   75.0660   66.4770 C.3   217  ILE217      0.0001
     41  N         74.9350   67.2380   58.9930 N.3   230  SER230     -0.1217
     42  CA        74.7430   68.6740   59.0440 C.3   230  SER230      0.1889
     43  C         76.0310   69.3510   59.5050 C.2   230  SER230      0.2288
     44  O         76.8450   68.7430   60.2050 O.2   230  SER230     -0.2866
     45  CB        73.6330   69.0160   60.0240 C.3   230  SER230      0.2089
     46  OG        73.9550   68.5300   61.3120 O.3   230  SER230     -0.2183
     47  N         77.0900   72.5600   61.6260 N.3   232  ASN232     -0.1240
     48  CA        76.5570   73.6290   62.4540 C.3   232  ASN232      0.1653
     49  C         77.6650   74.5370   62.9690 C.2   232  ASN232      0.2266
     50  O         78.7210   74.0750   63.4110 O.2   232  ASN232     -0.2867
     51  CB        75.7390   73.0510   63.6130 C.3   232  ASN232      0.1155
     52  CG        74.7780   71.9650   63.1570 C.2   232  ASN232      0.2627
     53  OD1       75.2010   70.8640   62.8230 O.2   232  ASN232     -0.2716
     54  ND2       73.4890   72.2710   63.1330 N.am  232  ASN232     -0.0877
     55  N         79.3020   56.9080   67.3950 N.3   247  THR247     -0.1218
     56  CA        78.4800   55.8700   67.9730 C.3   247  THR247      0.1862
     57  C         77.5170   55.4370   66.8790 C.2   247  THR247      0.2287
     58  O         76.5230   56.1180   66.5700 O.2   247  THR247     -0.2866
     59  CB        77.7550   56.3850   69.2350 C.3   247  THR247      0.1770
     60  OG1       76.6170   55.5600   69.4990 O.3   247  THR247     -0.2211
     61  CG2       77.3480   57.8400   69.0760 C.3   247  THR247      0.0375
     62  N         76.0180   54.9870   63.3390 N.3   249  ARG249     -0.1231
     63  CA        76.0240   55.9120   62.2150 C.3   249  ARG249      0.1694
     64  C         76.1100   57.3920   62.6090 C.2   249  ARG249      0.2591
     65  O         76.0310   58.2670   61.7430 O.2   249  ARG249     -0.2718
     66  CB        74.8100   55.6770   61.3100 C.3   249  ARG249      0.0321
     67  CG        73.4940   56.2740   61.7890 C.3   249  ARG249      0.0489
     68  CD        72.4200   56.0670   60.7300 C.3   249  ARG249      0.2205
     69  NE        71.9710   54.6830   60.7280 N.pl3 249  ARG249     -0.0865
     70  CZ        71.8790   53.9110   59.6520 C.cat 249  ARG249      0.5346
     71  NH1       72.2190   54.3860   58.4600 N.pl3 249  ARG249      0.1354
     72  NH2       71.4240   52.6630   59.7780 N.pl3 249  ARG249      0.1354
     73  N         76.2990   57.6890   63.8930 N.am  250  ARG250     -0.1980
     74  CA        76.4170   59.0930   64.3110 C.3   250  ARG250      0.1597
     75  C         77.8120   59.5570   64.7010 C.2   250  ARG250      0.2287
     76  O         78.3870   59.1160   65.7010 O.2   250  ARG250     -0.2864
     77  CB        75.4930   59.4180   65.4760 C.3   250  ARG250      0.0334
     78  CG        75.3890   60.9100   65.7290 C.3   250  ARG250      0.0492
     79  CD        74.0270   61.3110   66.2900 C.3   250  ARG250      0.2205
     80  NE        73.8710   60.9910   67.7010 N.pl3 250  ARG250     -0.0865
     81  CZ        72.7110   60.9870   68.3560 C.cat 250  ARG250      0.5346
     82  NH1       71.5850   61.2700   67.7380 N.pl3 250  ARG250      0.1354
     83  NH2       72.6850   60.7390   69.6560 N.pl3 250  ARG250      0.1354
     84  N         80.4320   72.1580   64.4050 N.3   263  THR263     -0.1218
     85  CA        79.9450   70.8340   64.7600 C.3   263  THR263      0.1862
     86  C         79.3020   70.1080   63.5690 C.2   263  THR263      0.2287
     87  O         78.2830   70.5430   63.0240 O.2   263  THR263     -0.2866
     88  CB        78.9320   70.9290   65.9040 C.3   263  THR263      0.1770
     89  OG1       79.5110   71.6660   66.9900 O.3   263  THR263     -0.2211
     90  CG2       78.5550   69.5560   66.3920 C.3   263  THR263      0.0375
     91  N         77.5270   66.7440   62.3670 N.3   265  VAL265     -0.1245
     92  CA        76.7440   65.6320   62.9080 C.3   265  VAL265      0.1561
     93  C         76.1560   64.8320   61.7660 C.2   265  VAL265      0.2260
     94  O         75.4810   65.3870   60.9160 O.2   265  VAL265     -0.2867
     95  CB        75.5550   66.1270   63.7930 C.3   265  VAL265      0.0252
     96  CG1       74.7250   64.9310   64.2490 C.3   265  VAL265      0.0019
     97  CG2       76.0760   66.9390   64.9980 C.3   265  VAL265      0.0019
@<TRIPOS>BOND
     1    71    70    1
     2    41    42    1
     3    42    43    1
     4    42    45    1
     5    43    44    2
     6    70    72    1
     7    70    69    2
     8     6     5    1
     9    45    46    1
    10     1     2    1
    11    19    18    2
    12     2     5    1
    13     2     3    1
    14    69    68    1
    15    68    67    1
    16     8     3   am
    17     8     9    1
    18     5     7    1
    19    94    93    2
    20     3     4    2
    21    66    67    1
    22    66    63    1
    23    18    17    1
    24     9    10    1
    25     9    12    1
    26    10    11    2
    27    47    48    1
    28    65    64    2
    29    93    92    1
    30    20    17    1
    31    20    21    1
    32    14    13   ar
    33    16    17    1
    34    63    64    1
    35    63    62    1
    36    91    92    1
    37    48    49    1
    38    48    51    1
    39    24    22   ar
    40    64    73   am
    41    13    12    1
    42    13    15   ar
    43    53    52    2
    44    21    22    1
    45    92    95    1
    46    49    50    2
    47    87    86    2
    48    22    23   ar
    49    54    52   am
    50    52    51    1
    51    86    85    1
    52    95    96    1
    53    95    97    1
    54    73    74    1
    55    36    35    2
    56    35    34    1
    57    74    75    1
    58    74    77    1
    59    84    85    1
    60    75    76    2
    61    85    88    1
    62    77    78    1
    63    34    33    1
    64    34    37    1
    65    78    79    1
    66    38    37    1
    67    38    40    1
    68    88    90    1
    69    88    89    1
    70    39    37    1
    71    79    80    1
    72    58    57    2
    73    57    56    1
    74    55    56    1
    75    80    81    2
    76    82    81    1
    77    56    59    1
    78    81    83    1
    79    61    59    1
    80    59    60    1
    81    32    30    1
    82    25    26    1
    83    30    31    1
    84    30    29    1
    85    26    29    1
    86    26    27    1
    87    27    28    2
