@<TRIPOS>MOLECULE
tmp/2p4bB00.pdb
 75 71 0 0 0
SMALL
GASTEIGER

@<TRIPOS>ATOM
      1  N         65.2940   69.5070   64.4420 N.3   186  LEU186     -0.1231
      2  CA        66.7200   69.2910   64.3050 C.3   186  LEU186      0.1678
      3  C         67.0630   69.3230   62.8310 C.2   186  LEU186      0.2434
      4  O         66.2090   69.0980   61.9760 O.2   186  LEU186     -0.2733
      5  CB        67.1230   67.9510   64.9130 C.3   186  LEU186      0.0284
      6  CG        67.0230   67.9270   66.4370 C.3   186  LEU186      0.0019
      7  CD1       67.3910   66.5550   66.9760 C.3   186  LEU186      0.0001
      8  CD2       67.9520   68.9890   67.0020 C.3   186  LEU186      0.0001
      9  N         68.3210   69.6330   62.5100 N.am  187  PRO187     -0.2718
     10  CA        68.7140   69.6770   61.1030 C.3   187  PRO187      0.1535
     11  C         69.0140   68.2680   60.6050 C.2   187  PRO187      0.2599
     12  O         70.1680   67.9010   60.4130 O.2   187  PRO187     -0.2715
     13  CB        69.9460   70.5680   61.1290 C.3   187  PRO187      0.0310
     14  CG        70.5840   70.2020   62.4620 C.3   187  PRO187      0.0237
     15  CD        69.4010   70.1140   63.3940 C.3   187  PRO187      0.0939
     16  N         67.9630   67.4800   60.4090 N.am  188  THR188     -0.1951
     17  CA        68.1050   66.1070   59.9280 C.3   188  THR188      0.1897
     18  C         67.2250   65.9050   58.7020 C.2   188  THR188      0.2313
     19  O         66.4180   66.7700   58.3640 O.2   188  THR188     -0.2863
     20  CB        67.6680   65.1030   61.0060 C.3   188  THR188      0.1794
     21  OG1       66.2970   65.3360   61.3330 O.3   188  THR188     -0.2208
     22  CG2       68.5040   65.2710   62.2620 C.3   188  THR188      0.0378
     23  N         64.8090   64.0580   58.5010 N.3   190  ASP190     -0.1239
     24  CA        63.4230   63.9060   58.9430 C.3   190  ASP190      0.1674
     25  C         62.9600   65.0710   59.8060 C.2   190  ASP190      0.2266
     26  O         61.9100   64.9920   60.4390 O.2   190  ASP190     -0.2867
     27  CB        63.2660   62.6100   59.7370 C.3   190  ASP190      0.1410
     28  CG        63.9900   62.6570   61.0640 C.2   190  ASP190      0.3668
     29  OD1       65.2160   62.8960   61.0690 O.co2 190  ASP190     -0.2456
     30  OD2       63.3350   62.4630   62.1050 O.co2 190  ASP190     -0.2456
     31  N         63.7280   65.9830   62.6220 N.3   192  MET192     -0.1245
     32  CA        63.4450   65.4610   63.9510 C.3   192  MET192      0.1570
     33  C         63.2710   66.6020   64.9550 C.2   192  MET192      0.2261
     34  O         64.1760   67.4160   65.1530 O.2   192  MET192     -0.2867
     35  CB        64.5830   64.5300   64.3840 C.3   192  MET192      0.0387
     36  CG        64.4040   63.9170   65.7750 C.3   192  MET192      0.0595
     37  SD        65.6140   62.6320   66.1670 S.3   192  MET192     -0.1393
     38  CE        64.5420   61.3760   66.7360 C.3   192  MET192      0.0692
     39  N         64.5970   64.5800   72.6490 N.3   211  ASN211     -0.1240
     40  CA        64.2450   64.1140   71.3170 C.3   211  ASN211      0.1653
     41  C         63.9990   62.6200   71.4100 C.2   211  ASN211      0.2266
     42  O         64.4630   61.9590   72.3410 O.2   211  ASN211     -0.2867
     43  CB        65.3290   64.4440   70.2760 C.3   211  ASN211      0.1155
     44  CG        66.6660   63.7590   70.5450 C.2   211  ASN211      0.2627
     45  OD1       66.7740   62.5330   70.5050 O.2   211  ASN211     -0.2716
     46  ND2       67.6960   64.5600   70.7960 N.am  211  ASN211     -0.0877
     47  N         67.1410   57.4100   69.4600 N.3   214  THR214     -0.1204
     48  CA        67.4200   56.8300   68.1510 C.3   214  THR214      0.1979
     49  C         68.3630   55.6420   68.3530 C.2   214  THR214      0.2460
     50  O         68.8730   55.4260   69.4470 O.2   214  THR214     -0.2732
     51  CB        68.0610   57.8540   67.1810 C.3   214  THR214      0.1783
     52  OG1       69.4480   58.0120   67.4940 O.3   214  THR214     -0.2211
     53  CG2       67.3410   59.2070   67.2690 C.3   214  THR214      0.0376
     54  N         68.5960   54.8450   67.3060 N.am  215  PRO215     -0.2717
     55  CA        69.4990   53.7110   67.5190 C.3   215  PRO215      0.1535
     56  C         70.9470   54.1160   67.8470 C.2   215  PRO215      0.2599
     57  O         71.7740   53.2770   68.2050 O.2   215  PRO215     -0.2715
     58  CB        69.3880   52.9340   66.2070 C.3   215  PRO215      0.0310
     59  CG        68.0140   53.2860   65.6920 C.3   215  PRO215      0.0237
     60  CD        67.9410   54.7690   65.9880 C.3   215  PRO215      0.0939
     61  N         71.2610   55.4010   67.7380 N.am  216  SER216     -0.1950
     62  CA        72.6200   55.8280   68.0300 C.3   216  SER216      0.1924
     63  C         72.7080   56.6540   69.2990 C.2   216  SER216      0.2314
     64  O         73.7740   57.1570   69.6520 O.2   216  SER216     -0.2863
     65  CB        73.1850   56.6420   66.8840 C.3   216  SER216      0.2116
     66  OG        73.1220   55.9410   65.6540 O.3   216  SER216     -0.2180
     67  N         65.8450   60.7930   74.2960 N.3   238  GLU238     -0.1245
     68  CA        67.2440   61.2000   74.3450 C.3   238  GLU238      0.1567
     69  C         67.3240   62.5660   75.0210 C.2   238  GLU238      0.2260
     70  O         67.0930   63.6000   74.3940 O.2   238  GLU238     -0.2867
     71  CB        67.8350   61.2580   72.9320 C.3   238  GLU238      0.0388
     72  CG        69.1050   62.1000   72.8090 C.3   238  GLU238      0.1160
     73  CD        70.0280   61.6330   71.7050 C.2   238  GLU238      0.3649
     74  OE1       69.5470   61.2330   70.6260 O.co2 238  GLU238     -0.2457
     75  OE2       71.2530   61.6780   71.9160 O.co2 238  GLU238     -0.2457
@<TRIPOS>BOND
     1    19    18    2
     2    23    24    1
     3    18    17    1
     4    24    27    1
     5    24    25    1
     6    27    28    1
     7    25    26    2
     8    17    16    1
     9    17    20    1
    10    16    11   am
    11    12    11    2
    12    11    10    1
    13    20    21    1
    14    20    22    1
    15    28    29   ar
    16    28    30   ar
    17    10    13    1
    18    10     9    1
    19    13    14    1
    20     4     3    2
    21    14    15    1
    22     9     3   am
    23     9    15    1
    24    31    32    1
    25     3     2    1
    26    32    35    1
    27    32    33    1
    28     2     1    1
    29     2     5    1
    30    35    36    1
    31     5     6    1
    32    33    34    2
    33    66    65    1
    34    59    60    1
    35    59    58    1
    36    36    37    1
    37    60    54    1
    38    37    38    1
    39    58    55    1
    40     6     7    1
    41     6     8    1
    42    65    62    1
    43    51    53    1
    44    51    52    1
    45    51    48    1
    46    54    55    1
    47    54    49   am
    48    55    56    1
    49    61    56   am
    50    61    62    1
    51    56    57    2
    52    62    63    1
    53    48    49    1
    54    48    47    1
    55    49    50    2
    56    63    64    2
    57    43    44    1
    58    43    40    1
    59    45    44    2
    60    44    46   am
    61    74    73   ar
    62    40    41    1
    63    40    39    1
    64    41    42    2
    65    73    75   ar
    66    73    72    1
    67    72    71    1
    68    71    68    1
    69    67    68    1
    70    68    69    1
    71    70    69    2
