@<TRIPOS>MOLECULE
tmp/2p4fA00.pdb
 90 87 0 0 0
SMALL
GASTEIGER

@<TRIPOS>ATOM
      1  N         -3.8350   23.2990   48.3860 N.3    61  PRO61      -0.2102
      2  CA        -3.0980   23.8430   47.2400 C.3    61  PRO61       0.1504
      3  C         -1.7070   24.3720   47.5510 C.2    61  PRO61       0.2575
      4  O         -1.0080   24.7580   46.6040 O.2    61  PRO61      -0.2718
      5  CB        -4.0130   24.9640   46.7060 C.3    61  PRO61       0.0282
      6  CG        -4.7060   25.4580   47.9630 C.3    61  PRO61       0.0208
      7  CD        -4.9710   24.1840   48.7490 C.3    61  PRO61       0.0893
      8  N         -1.2710   24.3870   48.8110 N.am   62  LEU62      -0.1980
      9  CA         0.0410   24.9350   49.1400 C.3    62  LEU62       0.1596
     10  C          0.8140   23.8930   49.9240 C.2    62  LEU62       0.2287
     11  O          0.2370   23.2150   50.7880 O.2    62  LEU62      -0.2864
     12  CB        -0.1340   26.2200   49.9560 C.3    62  LEU62       0.0297
     13  CG         1.1730   26.9680   50.2600 C.3    62  LEU62       0.0022
     14  CD1        1.8040   27.4960   48.9710 C.3    62  LEU62       0.0001
     15  CD2        0.9130   28.1180   51.2550 C.3    62  LEU62       0.0001
     16  N          2.9530   25.3020   44.9140 N.3    79  GLN79      -0.1245
     17  CA         1.6190   25.8960   44.8620 C.3    79  GLN79       0.1566
     18  C          0.8950   25.3260   43.6300 C.2    79  GLN79       0.2260
     19  O          1.4300   25.4120   42.5220 O.2    79  GLN79      -0.2867
     20  CB         1.6560   27.4530   44.7690 C.3    79  GLN79       0.0367
     21  CG         0.2410   28.0370   44.9990 C.3    79  GLN79       0.0905
     22  CD         0.2410   29.5560   45.0480 C.2    79  GLN79       0.2608
     23  OE1        1.2920   30.2240   44.8100 O.2    79  GLN79      -0.2717
     24  NE2       -0.9300   30.1110   45.3570 N.am   79  GLN79      -0.0878
     25  N         -2.1620   25.8530   41.1240 N.3    81  GLN81      -0.1245
     26  CA        -2.9880   26.9360   40.6020 C.3    81  GLN81       0.1566
     27  C         -3.9260   26.3690   39.5410 C.2    81  GLN81       0.2260
     28  O         -3.4860   25.6510   38.5990 O.2    81  GLN81      -0.2867
     29  CB        -2.1120   28.0520   40.0170 C.3    81  GLN81       0.0367
     30  CG        -1.3310   28.6940   41.1470 C.3    81  GLN81       0.0905
     31  CD        -1.0470   30.1410   40.8570 C.2    81  GLN81       0.2608
     32  OE1       -0.7390   30.4800   39.7030 O.2    81  GLN81      -0.2717
     33  NE2       -1.1700   30.9260   41.9150 N.am   81  GLN81      -0.0878
     34  N         -2.5410   18.7820   57.3900 N.3   171  ASP171     -0.1225
     35  CA        -2.2540   19.6190   58.5570 C.3   171  ASP171      0.1805
     36  C         -1.6200   20.9370   58.1840 C.2   171  ASP171      0.2598
     37  O         -1.9320   21.9960   58.7750 O.2   171  ASP171     -0.2718
     38  CB        -1.3080   18.8540   59.4990 C.3   171  ASP171      0.1424
     39  CG        -2.0280   17.7800   60.2820 C.2   171  ASP171      0.3668
     40  OD1       -3.2720   17.7470   60.3480 O.co2 171  ASP171     -0.2456
     41  OD2       -1.2990   16.9180   60.8420 O.co2 171  ASP171     -0.2456
     42  N         -0.7170   20.9180   57.1900 N.am  172  PHE172     -0.1962
     43  CA        -0.1310   22.1810   56.7300 C.3   172  PHE172      0.1771
     44  C         -1.2470   23.1020   56.2170 C.2   172  PHE172      0.2619
     45  O         -1.3150   24.2830   56.5880 O.2   172  PHE172     -0.2715
     46  CB         0.8880   21.8850   55.6170 C.3   172  PHE172      0.0574
     47  CG         1.5410   23.1680   55.1050 C.ar  172  PHE172     -0.0200
     48  CD1        2.6460   23.7160   55.7530 C.ar  172  PHE172     -0.0042
     49  CD2        1.0320   23.7860   53.9580 C.ar  172  PHE172     -0.0042
     50  CE1        3.1980   24.8760   55.2570 C.ar  172  PHE172     -0.0003
     51  CE2        1.5760   24.9560   53.4650 C.ar  172  PHE172     -0.0003
     52  CZ         2.6760   25.4740   54.1080 C.ar  172  PHE172     -0.0000
     53  N         -2.1020   22.5740   55.3290 N.am  173  ASN173     -0.1972
     54  CA        -3.0890   23.4420   54.6790 C.3   173  ASN173      0.1688
     55  C         -4.1900   23.9260   55.6080 C.2   173  ASN173      0.2292
     56  O         -4.8200   24.9500   55.3410 O.2   173  ASN173     -0.2864
     57  CB        -3.6920   22.6980   53.4650 C.3   173  ASN173      0.1181
     58  CG        -2.7240   22.8680   52.3040 C.2   173  ASN173      0.2629
     59  OD1       -2.8090   23.8400   51.4980 O.2   173  ASN173     -0.2716
     60  ND2       -1.8000   21.9150   52.1680 N.am  173  ASN173     -0.0877
     61  N         -3.4480   24.6180   58.7540 N.3   175  GLY175     -0.1210
     62  CA        -2.8280   25.4310   59.8110 C.3   175  GLY175      0.1956
     63  C         -2.7960   24.7340   61.1660 C.2   175  GLY175      0.2613
     64  O         -2.7520   25.3750   62.2110 O.2   175  GLY175     -0.2717
     65  N         -2.8230   23.3980   61.1260 N.am  176  SER176     -0.1938
     66  CA        -2.8010   22.6050   62.3590 C.3   176  SER176      0.2055
     67  C         -1.4560   22.6920   63.0510 C.2   176  SER176      0.2642
     68  O         -0.3510   22.6630   62.4640 O.2   176  SER176     -0.2714
     69  CB        -3.0790   21.1360   62.0420 C.3   176  SER176      0.2130
     70  OG        -2.7800   20.3680   63.2060 O.3   176  SER176     -0.2179
     71  N         -1.5160   22.7610   64.3870 N.am  177  GLN177     -0.1976
     72  CA        -0.3400   22.6680   65.2310 C.3   177  GLN177      0.1601
     73  C          0.4620   21.3870   65.0410 C.2   177  GLN177      0.2287
     74  O          1.6120   21.2470   65.4650 O.2   177  GLN177     -0.2864
     75  CB        -0.8360   22.7060   66.6900 C.3   177  GLN177      0.0394
     76  CG        -1.8860   21.6320   66.9110 C.3   177  GLN177      0.0908
     77  CD        -3.3350   22.0620   66.8390 C.2   177  GLN177      0.2608
     78  OE1       -3.8180   22.7430   65.9280 O.2   177  GLN177     -0.2717
     79  NE2       -4.0770   21.6070   67.8570 N.am  177  GLN177     -0.0878
     80  N          1.3450   20.1540   62.2760 N.3   179  PHE179     -0.1241
     81  CA         2.3670   20.2530   61.2390 C.3   179  PHE179      0.1605
     82  C          3.7460   20.4880   61.8500 C.2   179  PHE179      0.2264
     83  O          3.9380   21.3530   62.7100 O.2   179  PHE179     -0.2867
     84  CB         2.0640   21.3870   60.2330 C.3   179  PHE179      0.0534
     85  CG         3.1870   21.5160   59.2160 C.ar  179  PHE179     -0.0203
     86  CD1        3.2210   20.6130   58.1620 C.ar  179  PHE179     -0.0042
     87  CD2        4.1680   22.4620   59.2560 C.ar  179  PHE179     -0.0042
     88  CE1        4.2120   20.6740   57.2090 C.ar  179  PHE179     -0.0003
     89  CE2        5.2010   22.5340   58.3320 C.ar  179  PHE179     -0.0003
     90  CZ         5.2340   21.6080   57.2820 C.ar  179  PHE179     -0.0000
@<TRIPOS>BOND
     1    28    27    2
     2    27    26    1
     3    32    31    2
     4    29    26    1
     5    29    30    1
     6    26    25    1
     7    31    30    1
     8    31    33   am
     9    19    18    2
    10    18    17    1
    11    20    17    1
    12    20    21    1
    13    23    22    2
    14    17    16    1
    15    21    22    1
    16    22    24   am
    17     4     3    2
    18     5     2    1
    19     5     6    1
    20     2     3    1
    21     2     1    1
    22     3     8   am
    23     6     7    1
    24     1     7    1
    25     8     9    1
    26    14    13    1
    27     9    10    1
    28     9    12    1
    29    10    11    2
    30    12    13    1
    31    13    15    1
    32    59    58    2
    33    60    58   am
    34    58    57    1
    35    57    54    1
    36    51    49   ar
    37    51    52   ar
    38    49    47   ar
    39    52    50   ar
    40    54    53    1
    41    54    55    1
    42    47    46    1
    43    47    48   ar
    44    50    48   ar
    45    53    44   am
    46    56    55    2
    47    46    43    1
    48    44    45    2
    49    44    43    1
    50    43    42    1
    51    42    36   am
    52    88    90   ar
    53    88    86   ar
    54    90    89   ar
    55    34    35    1
    56    86    85   ar
    57    36    35    1
    58    36    37    2
    59    89    87   ar
    60    35    38    1
    61    61    62    1
    62    85    87   ar
    63    85    84    1
    64    38    39    1
    65    62    63    1
    66    84    81    1
    67    39    40   ar
    68    39    41   ar
    69    65    63   am
    70    65    66    1
    71    63    64    2
    72    81    82    1
    73    81    80    1
    74    82    83    2
    75    69    66    1
    76    69    70    1
    77    66    67    1
    78    68    67    2
    79    67    71   am
    80    71    72    1
    81    73    72    1
    82    73    74    2
    83    72    75    1
    84    78    77    2
    85    75    76    1
    86    77    76    1
    87    77    79   am
