@<TRIPOS>MOLECULE
tmp/2p4iA00.pdb
 221 210 0 0 0
SMALL
GASTEIGER

@<TRIPOS>ATOM
      1  N         28.6780   -4.5360   83.4020 N.3     1  VAL1       -0.1245
      2  CA        27.2030   -4.3370   83.2640 C.3     1  VAL1        0.1561
      3  C         26.6130   -5.2700   82.2010 C.2     1  VAL1        0.2260
      4  O         27.0680   -5.2830   81.0470 O.2     1  VAL1       -0.2867
      5  CB        26.8490   -2.8670   82.9240 C.3     1  VAL1        0.0252
      6  CG1       25.3310   -2.6550   82.9330 C.3     1  VAL1        0.0019
      7  CG2       27.5290   -1.9110   83.8970 C.3     1  VAL1        0.0019
      8  N         19.3010   -4.1380   83.8070 N.3    11  ALA11      -0.1245
      9  CA        20.7290   -3.9570   83.5920 C.3    11  ALA11       0.1562
     10  C         21.4330   -4.2250   84.9140 C.2    11  ALA11       0.2260
     11  O         21.2720   -3.4690   85.8730 O.2    11  ALA11      -0.2867
     12  CB        21.0190   -2.5580   83.1000 C.3    11  ALA11       0.0290
     13  N         24.6600   -4.8730   87.4410 N.3    13  LYS13      -0.1245
     14  CA        26.0480   -4.5660   87.7600 C.3    13  LYS13       0.1561
     15  C         26.5170   -5.5310   88.8440 C.2    13  LYS13       0.2260
     16  O         25.7680   -5.8290   89.7720 O.2    13  LYS13      -0.2867
     17  CB        26.1540   -3.1280   88.2580 C.3    13  LYS13       0.0271
     18  CG        27.5570   -2.5710   88.3090 C.3    13  LYS13       0.0035
     19  CD        27.5870   -1.2800   89.1180 C.3    13  LYS13       0.0206
     20  CE        28.9790   -0.6750   89.1690 C.3    13  LYS13       0.1093
     21  NZ        28.9770    0.5800   89.9590 N.3    13  LYS13      -0.1314
     22  N         27.1940    0.3290   97.4990 N.3    16  GLU16      -0.1245
     23  CA        26.3580    1.1670   96.6410 C.3    16  GLU16       0.1567
     24  C         24.8590    1.0510   96.9530 C.2    16  GLU16       0.2260
     25  O         24.0690    1.9260   96.5850 O.2    16  GLU16      -0.2867
     26  CB        26.6040    0.8220   95.1710 C.3    16  GLU16       0.0388
     27  CG        27.9580    1.2520   94.6240 C.3    16  GLU16       0.1160
     28  CD        28.1190    0.9510   93.1380 C.2    16  GLU16       0.3649
     29  OE1       29.2520    1.0930   92.6220 O.co2  16  GLU16      -0.2457
     30  OE2       27.1200    0.5740   92.4850 O.co2  16  GLU16      -0.2457
     31  N         23.0860    4.0260   98.8360 N.3    19  VAL19      -0.1231
     32  CA        22.8320    5.2320   98.0440 C.3    19  VAL19       0.1692
     33  C         21.6110    5.0620   97.1420 C.2    19  VAL19       0.2591
     34  O         20.7780    5.9590   97.0460 O.2    19  VAL19      -0.2718
     35  CB        24.0800    5.6420   97.2100 C.3    19  VAL19       0.0266
     36  CG1       23.8770    6.9890   96.5400 C.3    19  VAL19       0.0020
     37  CG2       25.3090    5.6950   98.0940 C.3    19  VAL19       0.0020
     38  N         21.5030    3.9050   96.5020 N.am   20  LEU20      -0.1980
     39  CA        20.3880    3.6330   95.6110 C.3    20  LEU20       0.1596
     40  C         19.0510    3.5810   96.3580 C.2    20  LEU20       0.2287
     41  O         18.0410    4.1250   95.8880 O.2    20  LEU20      -0.2864
     42  CB        20.6270    2.3350   94.8370 C.3    20  LEU20       0.0297
     43  CG        21.6840    2.3270   93.7280 C.3    20  LEU20       0.0022
     44  CD1       21.9620    0.9040   93.2820 C.3    20  LEU20       0.0001
     45  CD2       21.2720    3.1760   92.5330 C.3    20  LEU20       0.0001
     46  N         17.6150    7.0100   97.4100 N.3    23  LEU23      -0.1245
     47  CA        17.0710    7.8260   96.3280 C.3    23  LEU23       0.1561
     48  C         15.5520    7.6700   96.2120 C.2    23  LEU23       0.2260
     49  O         14.8700    8.5420   95.6700 O.2    23  LEU23      -0.2867
     50  CB        17.7160    7.4730   94.9890 C.3    23  LEU23       0.0270
     51  CG        19.2130    7.6720   94.7670 C.3    23  LEU23       0.0019
     52  CD1       19.6000    7.0290   93.4390 C.3    23  LEU23       0.0001
     53  CD2       19.6460    9.1320   94.8100 C.3    23  LEU23       0.0001
     54  N         13.9060    9.1840   87.4480 N.3    29  ILE29      -0.1231
     55  CA        15.2180    8.6400   87.7970 C.3    29  ILE29       0.1692
     56  C         15.2670    7.1470   87.4540 C.2    29  ILE29       0.2591
     57  O         14.2410    6.5410   87.1340 O.2    29  ILE29      -0.2718
     58  CB        15.6110    8.9360   89.2810 C.3    29  ILE29       0.0266
     59  CG1       14.7300    8.1580   90.2710 C.3    29  ILE29       0.0019
     60  CG2       15.5490   10.4340   89.5530 C.3    29  ILE29       0.0020
     61  CD1       15.1960    8.2260   91.7360 C.3    29  ILE29       0.0001
     62  N         16.4600    6.5670   87.4960 N.am   30  ILE30      -0.1980
     63  CA        16.6050    5.1150   87.3590 C.3    30  ILE30       0.1595
     64  C         15.9050    4.3800   88.5120 C.2    30  ILE30       0.2287
     65  O         15.7660    4.9130   89.6140 O.2    30  ILE30      -0.2864
     66  CB        18.1000    4.6780   87.2270 C.3    30  ILE30       0.0276
     67  CG1       18.9500    5.2550   88.3610 C.3    30  ILE30       0.0022
     68  CG2       18.6680    5.0540   85.8590 C.3    30  ILE30       0.0022
     69  CD1       19.3610    4.2360   89.3760 C.3    30  ILE30       0.0001
     70  N         23.7500   -5.5770   91.5120 N.3    40  LEU40      -0.1245
     71  CA        22.6650   -4.5850   91.5810 C.3    40  LEU40       0.1561
     72  C         21.8030   -4.5660   90.3170 C.2    40  LEU40       0.2260
     73  O         22.3030   -4.3960   89.1960 O.2    40  LEU40      -0.2867
     74  CB        23.2140   -3.1850   91.8660 C.3    40  LEU40       0.0270
     75  CG        23.8090   -2.9560   93.2620 C.3    40  LEU40       0.0019
     76  CD1       24.6850   -1.7010   93.2750 C.3    40  LEU40       0.0001
     77  CD2       22.7170   -2.8790   94.3260 C.3    40  LEU40       0.0001
     78  N         18.9820   -2.8740   88.0290 N.3    42  ILE42      -0.1231
     79  CA        18.1930   -1.6860   87.6600 C.3    42  ILE42       0.1692
     80  C         17.3650   -1.8490   86.3680 C.2    42  ILE42       0.2592
     81  O         17.8300   -2.4510   85.3950 O.2    42  ILE42      -0.2718
     82  CB        19.0280   -0.3610   87.6470 C.3    42  ILE42       0.0266
     83  CG1       19.7080   -0.1290   86.3000 C.3    42  ILE42       0.0019
     84  CG2       20.0140   -0.2830   88.8450 C.3    42  ILE42       0.0020
     85  CD1       19.6170    1.3180   85.8570 C.3    42  ILE42       0.0001
     86  N         16.1420   -1.3030   86.3760 N.am   43  GLU43      -0.1966
     87  CA        15.1990   -1.4330   85.2520 C.3    43  GLU43       0.1733
     88  C         15.8380   -0.9670   83.9540 C.2    43  GLU43       0.2616
     89  O         16.3190    0.1680   83.8640 O.2    43  GLU43      -0.2715
     90  CB        13.8850   -0.6710   85.5080 C.3    43  GLU43       0.0429
     91  CG        12.7670   -1.0070   84.5010 C.3    43  GLU43       0.1163
     92  CD        11.5630   -0.0600   84.5560 C.2    43  GLU43       0.3649
     93  OE1       10.7210   -0.1150   83.6250 O.co2  43  GLU43      -0.2457
     94  OE2       11.4480    0.7290   85.5170 O.co2  43  GLU43      -0.2457
     95  N         15.8440   -1.8570   82.9620 N.am   44  TYR44      -0.1960
     96  CA        16.4810   -1.5970   81.6800 C.3    44  TYR44       0.1771
     97  C         15.7260   -0.5460   80.8710 C.2    44  TYR44       0.2619
     98  O         14.4890   -0.5280   80.8480 O.2    44  TYR44      -0.2715
     99  CB        16.6060   -2.8900   80.8920 C.3    44  TYR44       0.0574
    100  CG        17.4110   -2.7860   79.6210 C.ar   44  TYR44      -0.0198
    101  CD1       18.8080   -2.7250   79.6620 C.ar   44  TYR44      -0.0009
    102  CD2       16.7800   -2.7730   78.3730 C.ar   44  TYR44      -0.0009
    103  CE1       19.5640   -2.6340   78.4850 C.ar   44  TYR44       0.0417
    104  CE2       17.5190   -2.6860   77.1890 C.ar   44  TYR44       0.0417
    105  CZ        18.9130   -2.6170   77.2520 C.ar   44  TYR44       0.1957
    106  OH        19.6580   -2.5400   76.0900 O.3    44  TYR44      -0.2866
    107  N         16.4890    0.3340   80.2260 N.am   45  ALA45      -0.1977
    108  CA        15.9380    1.3910   79.3780 C.3    45  ALA45       0.1597
    109  C         16.1210    1.0020   77.9110 C.2    45  ALA45       0.2287
    110  O         17.2500    1.0350   77.4110 O.2    45  ALA45      -0.2864
    111  CB        16.6260    2.7170   79.6700 C.3    45  ALA45       0.0319
    112  N         18.2040    3.2180   75.4390 N.3    48  GLY48      -0.1210
    113  CA        19.5630    3.6080   75.8070 C.3    48  GLY48       0.1956
    114  C         19.7240    5.0780   76.1580 C.2    48  GLY48       0.2611
    115  O         18.7340    5.7640   76.4180 O.2    48  GLY48      -0.2717
    116  N         20.9660    5.5690   76.1400 N.am   49  ASN49      -0.1974
    117  CA        21.2640    6.9480   76.5430 C.3    49  ASN49       0.1688
    118  C         20.7670    8.0090   75.5660 C.2    49  ASN49       0.2292
    119  O         20.7480    7.8000   74.3550 O.2    49  ASN49      -0.2864
    120  CB        22.7530    7.1380   76.8610 C.3    49  ASN49       0.1181
    121  CG        23.6110    7.2000   75.6220 C.2    49  ASN49       0.2629
    122  OD1       23.6550    8.2240   74.9360 O.2    49  ASN49      -0.2716
    123  ND2       24.3090    6.0990   75.3260 N.am   49  ASN49      -0.0877
    124  N         15.4920   15.0600   92.8240 N.3    95  LEU95      -0.1245
    125  CA        16.8220   14.7590   93.3430 C.3    95  LEU95       0.1561
    126  C         17.4770   15.8870   94.1610 C.2    95  LEU95       0.2260
    127  O         18.2180   15.6200   95.1090 O.2    95  LEU95      -0.2867
    128  CB        17.7530   14.2850   92.2150 C.3    95  LEU95       0.0270
    129  CG        17.5900   12.8470   91.7220 C.3    95  LEU95       0.0019
    130  CD1       18.6040   12.5390   90.6560 C.3    95  LEU95       0.0001
    131  CD2       17.7320   11.8710   92.8700 C.3    95  LEU95       0.0001
    132  N         20.7450   15.9420   96.8320 N.3   100  PHE100     -0.1241
    133  CA        21.6350   15.1670   96.0000 C.3   100  PHE100      0.1605
    134  C         22.2320   16.0790   94.9360 C.2   100  PHE100      0.2264
    135  O         21.5350   16.8530   94.2670 O.2   100  PHE100     -0.2867
    136  CB        20.8920   14.0040   95.3660 C.3   100  PHE100      0.0534
    137  CG        21.7210   13.1970   94.4230 C.ar  100  PHE100     -0.0203
    138  CD1       22.4760   12.1220   94.8850 C.ar  100  PHE100     -0.0042
    139  CD2       21.7470   13.5000   93.0680 C.ar  100  PHE100     -0.0042
    140  CE1       23.2380   11.3720   94.0190 C.ar  100  PHE100     -0.0003
    141  CE2       22.5130   12.7540   92.2000 C.ar  100  PHE100     -0.0003
    142  CZ        23.2610   11.6810   92.6800 C.ar  100  PHE100     -0.0000
    143  N         24.4570   16.0010   91.5730 N.3   102  HIS102     -0.1241
    144  CA        24.8570   15.0880   90.5240 C.3   102  HIS102      0.1621
    145  C         26.2950   15.3180   90.1120 C.2   102  HIS102      0.2264
    146  O         27.0940   14.3840   90.1410 O.2   102  HIS102     -0.2867
    147  CB        23.9350   15.1850   89.3030 C.3   102  HIS102      0.0745
    148  CG        23.9900   13.9770   88.4160 C.ar  102  HIS102      0.0817
    149  ND1       25.0670   13.6980   87.5980 N.ar  102  HIS102     -0.2268
    150  CD2       23.1070   12.9680   88.2310 C.ar  102  HIS102      0.1154
    151  CE1       24.8380   12.5750   86.9400 C.ar  102  HIS102      0.1986
    152  NE2       23.6540   12.1150   87.3040 N.ar  102  HIS102     -0.2212
    153  N         18.8990    8.4210   80.6340 N.3   111  LEU111     -0.1245
    154  CA        18.3630    7.2520   79.9400 C.3   111  LEU111      0.1561
    155  C         16.9750    7.5210   79.3470 C.2   111  LEU111      0.2260
    156  O         16.2010    8.3230   79.8780 O.2   111  LEU111     -0.2867
    157  CB        18.3560    6.0280   80.8700 C.3   111  LEU111      0.0270
    158  CG        19.7170    5.3540   81.1470 C.3   111  LEU111      0.0019
    159  CD1       19.6250    4.3890   82.2990 C.3   111  LEU111      0.0001
    160  CD2       20.3000    4.6270   79.9340 C.3   111  LEU111      0.0001
    161  N         17.2280   10.2410   84.8880 N.3   120  ILE120     -0.1231
    162  CA        18.5660   10.5730   85.3430 C.3   120  ILE120      0.1692
    163  C         19.3110    9.2910   85.7090 C.2   120  ILE120      0.2592
    164  O         18.7760    8.4120   86.3880 O.2   120  ILE120     -0.2718
    165  CB        18.5650   11.5120   86.5890 C.3   120  ILE120      0.0266
    166  CG1       17.4320   12.5530   86.5380 C.3   120  ILE120      0.0019
    167  CG2       19.9690   12.1390   86.8090 C.3   120  ILE120      0.0020
    168  CD1       17.6140   13.6350   85.5280 C.3   120  ILE120      0.0001
    169  N         20.5500    9.1930   85.2560 N.am  121  ALA121     -0.1966
    170  CA        21.4230    8.1260   85.6810 C.3   121  ALA121      0.1728
    171  C         22.7930    8.7160   85.9720 C.2   121  ALA121      0.2616
    172  O         23.0380    9.9110   85.7440 O.2   121  ALA121     -0.2715
    173  CB        21.5110    7.0480   84.6150 C.3   121  ALA121      0.0334
    174  N         23.6680    7.8710   86.5020 N.am  122  ASP122     -0.1957
    175  CA        25.0410    8.2150   86.7780 C.3   122  ASP122      0.1840
    176  C         25.8350    6.9540   86.5130 C.2   122  ASP122      0.2622
    177  O         25.6760    5.9470   87.2070 O.2   122  ASP122     -0.2715
    178  CB        25.2260    8.6890   88.2200 C.3   122  ASP122      0.1450
    179  CG        26.6970    8.8930   88.5930 C.2   122  ASP122      0.3671
    180  OD1       27.6010    8.6500   87.7670 O.co2 122  ASP122     -0.2456
    181  OD2       26.9600    9.2950   89.7330 O.co2 122  ASP122     -0.2456
    182  N         26.6780    7.0220   85.4880 N.am  123  PHE123     -0.1960
    183  CA        27.4490    5.8750   85.0360 C.3   123  PHE123      0.1771
    184  C         28.8980    5.9770   85.5130 C.2   123  PHE123      0.2620
    185  O         29.7850    5.3150   84.9750 O.2   123  PHE123     -0.2715
    186  CB        27.3590    5.7220   83.5050 C.3   123  PHE123      0.0574
    187  CG        25.9590    5.5580   82.9880 C.ar  123  PHE123     -0.0200
    188  CD1       25.4160    6.4900   82.1160 C.ar  123  PHE123     -0.0042
    189  CD2       25.1770    4.4680   83.3680 C.ar  123  PHE123     -0.0042
    190  CE1       24.1280    6.3470   81.6190 C.ar  123  PHE123     -0.0003
    191  CE2       23.8700    4.3100   82.8790 C.ar  123  PHE123     -0.0003
    192  CZ        23.3510    5.2570   82.0030 C.ar  123  PHE123     -0.0000
    193  N         29.1270    6.8250   86.5180 N.am  124  GLY124     -0.1940
    194  CA        30.3620    6.7950   87.3110 C.3   124  GLY124      0.2014
    195  C         30.2470    5.5510   88.1690 C.2   124  GLY124      0.2639
    196  O         29.2410    4.8560   88.0840 O.2   124  GLY124     -0.2714
    197  N         31.2400    5.2420   88.9990 N.am  125  LEU125     -0.1963
    198  CA        31.2130    3.9150   89.6430 C.3   125  LEU125      0.1728
    199  C         31.3100    3.8240   91.1800 C.2   125  LEU125      0.2617
    200  O         31.6140    2.7530   91.7240 O.2   125  LEU125     -0.2715
    201  CB        32.2070    2.9390   88.9550 C.3   125  LEU125      0.0311
    202  CG        31.9740    2.6820   87.4720 C.3   125  LEU125      0.0022
    203  CD1       33.1080    1.8850   86.8610 C.3   125  LEU125      0.0001
    204  CD2       30.6580    1.9680   87.2210 C.3   125  LEU125      0.0001
    205  N         31.0250    4.9220   91.8780 N.am  126  SER126     -0.1936
    206  CA        30.8450    4.8710   93.3340 C.3   126  SER126      0.2055
    207  C         30.2190    6.1480   93.8760 C.2   126  SER126      0.2642
    208  O         30.5260    7.2390   93.4040 O.2   126  SER126     -0.2714
    209  CB        32.1750    4.5970   94.0410 C.3   126  SER126      0.2130
    210  OG        33.0750    5.6480   93.9450 O.3   126  SER126     -0.2179
    211  N         29.3290    5.9860   94.8550 N.am  127  ARG127     -0.1977
    212  CA        28.8160    7.0720   95.6820 C.3   127  ARG127      0.1597
    213  C         28.5200    6.5050   97.0680 C.2   127  ARG127      0.2287
    214  O         28.7610    7.1480   98.0870 O.2   127  ARG127     -0.2864
    215  CB        27.5480    7.6730   95.0850 C.3   127  ARG127      0.0334
    216  CG        27.7680    8.7190   94.0120 C.3   127  ARG127      0.0492
    217  CD        26.4540    9.3830   93.6230 C.3   127  ARG127      0.2205
    218  NE        26.5580   10.0650   92.3360 N.pl3 127  ARG127     -0.0865
    219  CZ        26.6250   11.3860   92.1720 C.cat 127  ARG127      0.5346
    220  NH1       26.5730   12.2030   93.2210 N.pl3 127  ARG127      0.1354
    221  NH2       26.7290   11.8930   90.9420 N.pl3 127  ARG127      0.1354
@<TRIPOS>BOND
     1   119   118    2
     2   122   121    2
     3   123   121   am
     4   112   113    1
     5   118   117    1
     6   121   120    1
     7   113   114    1
     8   106   105    1
     9   116   114   am
    10   116   117    1
    11   114   115    2
    12   117   120    1
    13   104   105   ar
    14   104   102   ar
    15   105   103   ar
    16   110   109    2
    17   109   108    1
    18   102   100   ar
    19   103   101   ar
    20   155   156    2
    21   155   154    1
    22   108   111    1
    23   108   107    1
    24   100   101   ar
    25   100    99    1
    26   160   158    1
    27   154   153    1
    28   154   157    1
    29   107    97   am
    30    98    97    2
    31   157   158    1
    32    97    96    1
    33    99    96    1
    34     4     3    2
    35   158   159    1
    36   190   192   ar
    37   190   188   ar
    38    96    95    1
    39   192   191   ar
    40   188   187   ar
    41     3     2    1
    42   191   189   ar
    43     5     6    1
    44     5     2    1
    45     5     7    1
    46    95    88   am
    47   187   189   ar
    48   187   186    1
    49    12     9    1
    50     2     1    1
    51   186   183    1
    52     9     8    1
    53     9    10    1
    54    93    92   ar
    55    89    88    2
    56    88    87    1
    57    91    92    1
    58    91    90    1
    59    92    94   ar
    60   173   170    1
    61   161   162    1
    62    10    11    2
    63   185   184    2
    64   183   182    1
    65   183   184    1
    66    87    90    1
    67    87    86    1
    68   169   170    1
    69   169   163   am
    70   162   163    1
    71   162   165    1
    72    81    80    2
    73   182   176   am
    74   184   193   am
    75   168   166    1
    76   170   171    1
    77   163   164    2
    78   172   171    2
    79    85    83    1
    80    68    66    1
    81   171   174   am
    82    83    82    1
    83    80    86   am
    84    80    79    1
    85   174   175    1
    86   176   175    1
    87   176   177    2
    88   193   194    1
    89   166   165    1
    90   165   167    1
    91   175   178    1
    92   203   202    1
    93   151   152   ar
    94   151   149   ar
    95    57    56    2
    96   204   202    1
    97    66    63    1
    98    66    67    1
    99   152   150   ar
   100   194   195    1
   101    63    62    1
   102    63    64    1
   103    13    14    1
   104    54    55    1
   105    56    62   am
   106    56    55    1
   107   202   201    1
   108   149   148   ar
   109    82    79    1
   110    82    84    1
   111    79    78    1
   112    14    17    1
   113    14    15    1
   114   180   179   ar
   115    55    58    1
   116   196   195    2
   117   195   197   am
   118   178   179    1
   119   150   148   ar
   120    17    18    1
   121    18    19    1
   122    67    69    1
   123   148   147    1
   124    64    65    2
   125   179   181   ar
   126    15    16    2
   127   201   198    1
   128   197   198    1
   129    19    20    1
   130    20    21    1
   131    73    72    2
   132    58    60    1
   133    58    59    1
   134   147   144    1
   135   198   199    1
   136   145   146    2
   137   145   144    1
   138    59    61    1
   139    72    71    1
   140   144   143    1
   141   130   129    1
   142   221   219    1
   143   199   200    2
   144   199   205   am
   145    70    71    1
   146    71    74    1
   147   129   128    1
   148   129   131    1
   149    74    75    1
   150   205   206    1
   151   219   218    2
   152   219   220    1
   153   141   142   ar
   154   141   139   ar
   155   128   125    1
   156   218   217    1
   157    30    28   ar
   158    45    43    1
   159    29    28   ar
   160   142   140   ar
   161   124   125    1
   162   139   137   ar
   163    28    27    1
   164    75    76    1
   165    75    77    1
   166    44    43    1
   167   206   207    1
   168   206   209    1
   169   125   126    1
   170   208   207    2
   171    52    51    1
   172   217   216    1
   173    43    42    1
   174   207   211   am
   175   210   209    1
   176   216   215    1
   177   140   138   ar
   178   126   127    2
   179   135   134    2
   180   137   138   ar
   181   137   136    1
   182    27    26    1
   183    51    53    1
   184    51    50    1
   185    42    39    1
   186   211   212    1
   187   134   133    1
   188    50    47    1
   189   215   212    1
   190    26    23    1
   191   136   133    1
   192    39    40    1
   193    39    38    1
   194    49    48    2
   195   212   213    1
   196    41    40    2
   197   133   132    1
   198    48    47    1
   199    47    46    1
   200    38    33   am
   201    36    35    1
   202    25    24    2
   203    23    24    1
   204    23    22    1
   205    34    33    2
   206   213   214    2
   207    33    32    1
   208    35    32    1
   209    35    37    1
   210    32    31    1
