@<TRIPOS>MOLECULE
tmp/2p4qA00.pdb
 89 84 0 0 0
SMALL
GASTEIGER

@<TRIPOS>ATOM
      1  N        -18.6090   66.6060   12.7140 N.3   102  ASN102     -0.1240
      2  CA       -19.8810   66.8410   13.4020 C.3   102  ASN102      0.1653
      3  C        -20.5760   65.5450   13.7520 C.2   102  ASN102      0.2266
      4  O        -21.5920   65.1740   13.1480 O.2   102  ASN102     -0.2867
      5  CB       -20.7870   67.7670   12.6000 C.3   102  ASN102      0.1155
      6  CG       -20.0030   68.7790   11.8150 C.2   102  ASN102      0.2627
      7  OD1      -20.1060   68.8460   10.5860 O.2   102  ASN102     -0.2716
      8  ND2      -19.1840   69.5610   12.5140 N.am  102  ASN102     -0.0877
      9  N        -25.4120   74.3600   17.2160 N.3   186  ASN186     -0.1240
     10  CA       -26.0760   74.2540   15.9250 C.3   186  ASN186      0.1653
     11  C        -27.6030   74.3810   16.0370 C.2   186  ASN186      0.2266
     12  O        -28.2520   74.8700   15.1120 O.2   186  ASN186     -0.2867
     13  CB       -25.6890   72.9420   15.2390 C.3   186  ASN186      0.1155
     14  CG       -24.3790   73.0410   14.4370 C.2   186  ASN186      0.2627
     15  OD1      -24.1140   72.2010   13.5820 O.2   186  ASN186     -0.2716
     16  ND2      -23.5750   74.0550   14.6990 N.am  186  ASN186     -0.0877
     17  N        -28.0270   78.0350   16.4980 N.3   189  GLU189     -0.1231
     18  CA       -27.8650   78.5610   15.1560 C.3   189  GLU189      0.1699
     19  C        -29.1850   78.5500   14.3970 C.2   189  GLU189      0.2592
     20  O        -29.6150   79.5920   13.9150 O.2   189  GLU189     -0.2718
     21  CB       -26.7970   77.7550   14.4300 C.3   189  GLU189      0.0402
     22  CG       -26.5180   78.1610   13.0190 C.3   189  GLU189      0.1161
     23  CD       -25.4640   77.2860   12.4140 C.2   189  GLU189      0.3649
     24  OE1      -24.2880   77.4040   12.8030 O.co2 189  GLU189     -0.2457
     25  OE2      -25.8150   76.4630   11.5720 O.co2 189  GLU189     -0.2457
     26  N        -29.8240   77.3890   14.2860 N.am  190  TYR190     -0.1976
     27  CA       -31.1420   77.2790   13.6430 C.3   190  TYR190      0.1639
     28  C        -32.1180   78.3110   14.1670 C.2   190  TYR190      0.2290
     29  O        -32.8070   78.9510   13.3920 O.2   190  TYR190     -0.2864
     30  CB       -31.7520   75.8940   13.8620 C.3   190  TYR190      0.0560
     31  CG       -31.2850   74.7930   12.9330 C.ar  190  TYR190     -0.0198
     32  CD1      -29.9340   74.6470   12.5780 C.ar  190  TYR190     -0.0009
     33  CD2      -32.1990   73.8640   12.4530 C.ar  190  TYR190     -0.0009
     34  CE1      -29.5200   73.6020   11.7460 C.ar  190  TYR190      0.0417
     35  CE2      -31.8070   72.8190   11.6180 C.ar  190  TYR190      0.0417
     36  CZ       -30.4730   72.6830   11.2710 C.ar  190  TYR190      0.1957
     37  OH       -30.1240   71.6330   10.4510 O.3   190  TYR190     -0.2866
     38  N        -31.1970   81.9500   12.8710 N.3   193  MET193     -0.1245
     39  CA       -31.5810   82.0910   11.4530 C.3   193  MET193      0.1570
     40  C        -33.0940   82.1950   11.2510 C.2   193  MET193      0.2261
     41  O        -33.5660   82.9340   10.3700 O.2   193  MET193     -0.2867
     42  CB       -31.0470   80.9300   10.6210 C.3   193  MET193      0.0387
     43  CG       -29.5260   80.8910   10.5020 C.3   193  MET193      0.0595
     44  SD       -28.8650   79.2960    9.9310 S.3   193  MET193     -0.1393
     45  CE       -29.3420   79.3290    8.2120 C.3   193  MET193      0.0692
     46  N        -32.7240   73.3970    3.7940 N.3   257  GLY257     -0.1210
     47  CA       -32.0640   72.1320    4.0040 C.3   257  GLY257      0.1956
     48  C        -31.7310   71.9970    5.4760 C.2   257  GLY257      0.2612
     49  O        -31.8020   72.9620    6.2400 O.2   257  GLY257     -0.2717
     50  N        -31.3930   70.7780    5.8730 N.am  258  GLN258     -0.1965
     51  CA       -30.8360   70.5150    7.1890 C.3   258  GLN258      0.1733
     52  C        -30.0550   69.2040    7.1230 C.2   258  GLN258      0.2616
     53  O        -30.5950   68.1710    6.7140 O.2   258  GLN258     -0.2715
     54  CB       -31.9230   70.4910    8.2760 C.3   258  GLN258      0.0408
     55  CG       -33.2030   69.7800    7.9000 C.3   258  GLN258      0.0908
     56  CD       -34.2310   69.7740    9.0210 C.2   258  GLN258      0.2608
     57  OE1      -33.9230   69.4570   10.1740 O.2   258  GLN258     -0.2717
     58  NE2      -35.4640   70.1120    8.6800 N.am  258  GLN258     -0.0878
     59  N        -28.7780   69.2510    7.4860 N.am  259  LYS259     -0.1963
     60  CA       -27.9540   68.0520    7.4370 C.3   259  LYS259      0.1728
     61  C        -28.2530   67.1440    8.6300 C.2   259  LYS259      0.2617
     62  O        -28.1100   65.9140    8.5250 O.2   259  LYS259     -0.2715
     63  CB       -26.4680   68.3910    7.3450 C.3   259  LYS259      0.0311
     64  CG       -26.1400   69.4420    6.2920 C.3   259  LYS259      0.0038
     65  CD       -26.0700   68.9460    4.8450 C.3   259  LYS259      0.0206
     66  CE       -25.2780   69.9660    4.0060 C.3   259  LYS259      0.1093
     67  NZ       -25.4010   69.8030    2.5170 N.3   259  LYS259     -0.1314
     68  N        -28.6830   67.7330    9.7500 N.am  260  GLY260     -0.1940
     69  CA       -29.1980   66.9350   10.8640 C.3   260  GLY260      0.2014
     70  C        -28.9570   67.4630   12.2630 C.2   260  GLY260      0.2639
     71  O        -29.7950   67.3030   13.1500 O.2   260  GLY260     -0.2714
     72  N        -27.8060   68.0820   12.4700 N.am  261  THR261     -0.1950
     73  CA       -27.3870   68.5430   13.8020 C.3   261  THR261      0.1897
     74  C        -28.4340   69.4210   14.5360 C.2   261  THR261      0.2313
     75  O        -28.3830   69.5950   15.7730 O.2   261  THR261     -0.2863
     76  CB       -26.0560   69.3020   13.6650 C.3   261  THR261      0.1794
     77  OG1      -25.4620   69.5010   14.9570 O.3   261  THR261     -0.2208
     78  CG2      -26.2910   70.6350   12.9270 C.3   261  THR261      0.0378
     79  N        -38.2460   74.7010    9.0030 N.3   286  ARG286     -0.1245
     80  CA       -37.5330   74.1100    7.8630 C.3   286  ARG286      0.1563
     81  C        -38.3050   72.9480    7.2590 C.2   286  ARG286      0.2260
     82  O        -38.3850   72.8280    6.0260 O.2   286  ARG286     -0.2867
     83  CB       -36.1300   73.6230    8.2580 C.3   286  ARG286      0.0307
     84  CG       -35.2180   74.6910    8.7960 C.3   286  ARG286      0.0489
     85  CD       -33.7890   74.3190    8.5110 C.3   286  ARG286      0.2205
     86  NE       -32.8460   75.2530    9.1100 N.pl3 286  ARG286     -0.0865
     87  CZ       -31.5280   75.2140    8.9300 C.cat 286  ARG286      0.5346
     88  NH1      -30.9710   74.2890    8.1470 N.pl3 286  ARG286      0.1354
     89  NH2      -30.7680   76.1130    9.5340 N.pl3 286  ARG286      0.1354
@<TRIPOS>BOND
     1    67    66    1
     2    46    47    1
     3    47    48    1
     4    66    65    1
     5    65    64    1
     6    48    50   am
     7    48    49    2
     8    50    51    1
     9    82    81    2
    10    64    63    1
    11    53    52    2
    12    52    51    1
    13    52    59   am
    14    51    54    1
    15    81    80    1
    16    63    60    1
    17    60    59    1
    18    60    61    1
    19    80    83    1
    20    80    79    1
    21    55    54    1
    22    55    56    1
    23    88    87    1
    24    45    44    1
    25    83    84    1
    26    85    84    1
    27    85    86    1
    28    62    61    2
    29    61    68   am
    30    58    56   am
    31    87    86    2
    32    87    89    1
    33    56    57    2
    34    68    69    1
    35    44    43    1
    36    41    40    2
    37    37    36    1
    38    43    42    1
    39     7     6    2
    40    42    39    1
    41    69    70    1
    42    40    39    1
    43    36    35   ar
    44    36    34   ar
    45    39    38    1
    46    25    23   ar
    47    35    33   ar
    48    34    32   ar
    49     6     8   am
    50     6     5    1
    51    70    72   am
    52    70    71    2
    53    23    24   ar
    54    23    22    1
    55    33    31   ar
    56    72    73    1
    57    32    31   ar
    58     5     2    1
    59     1     2    1
    60    78    76    1
    61    31    30    1
    62    22    21    1
    63     4     3    2
    64    29    28    2
    65     2     3    1
    66    15    14    2
    67    27    30    1
    68    27    28    1
    69    27    26    1
    70    76    73    1
    71    76    77    1
    72    73    74    1
    73    20    19    2
    74    26    19   am
    75    19    18    1
    76    21    18    1
    77    14    16   am
    78    14    13    1
    79    74    75    2
    80    12    11    2
    81    18    17    1
    82    13    10    1
    83    10    11    1
    84    10     9    1
