@<TRIPOS>MOLECULE
tmp/2p4qA01.pdb
 88 81 0 0 0
SMALL
GASTEIGER

@<TRIPOS>ATOM
      1  N        -12.3590   72.3840    4.7380 N.3    13  MET13      -0.1245
      2  CA       -12.3360   72.5800    6.1930 C.3    13  MET13       0.1570
      3  C        -10.9890   72.1950    6.8320 C.2    13  MET13       0.2261
      4  O        -10.3310   73.0290    7.4590 O.2    13  MET13      -0.2867
      5  CB       -13.4800   71.7850    6.8440 C.3    13  MET13       0.0387
      6  CG       -13.8900   72.2690    8.2260 C.3    13  MET13       0.0595
      7  SD       -14.5770   73.9310    8.1350 S.3    13  MET13      -0.1393
      8  CE       -15.2110   74.1340    9.8210 C.3    13  MET13       0.0692
      9  N        -18.6090   66.6060   12.7140 N.3   102  ASN102     -0.1240
     10  CA       -19.8810   66.8410   13.4020 C.3   102  ASN102      0.1653
     11  C        -20.5760   65.5450   13.7520 C.2   102  ASN102      0.2266
     12  O        -21.5920   65.1740   13.1480 O.2   102  ASN102     -0.2867
     13  CB       -20.7870   67.7670   12.6000 C.3   102  ASN102      0.1155
     14  CG       -20.0030   68.7790   11.8150 C.2   102  ASN102      0.2627
     15  OD1      -20.1060   68.8460   10.5860 O.2   102  ASN102     -0.2716
     16  ND2      -19.1840   69.5610   12.5140 N.am  102  ASN102     -0.0877
     17  N        -16.0720   71.6910   15.9110 N.3   127  VAL127     -0.1231
     18  CA       -15.3580   72.7220   15.1440 C.3   127  VAL127      0.1692
     19  C        -16.4040   73.5870   14.4480 C.2   127  VAL127      0.2593
     20  O        -17.2910   73.0680   13.7790 O.2   127  VAL127     -0.2718
     21  CB       -14.3970   72.1300   14.0640 C.3   127  VAL127      0.0266
     22  CG1      -13.6110   73.2520   13.3720 C.3   127  VAL127      0.0020
     23  CG2      -13.4320   71.1060   14.6520 C.3   127  VAL127      0.0020
     24  N        -16.3000   74.9020   14.6160 N.am  128  SER128     -0.1938
     25  CA       -17.2080   75.8430   13.9720 C.3   128  SER128      0.2055
     26  C        -16.5060   77.0960   13.4520 C.2   128  SER128      0.2644
     27  O        -15.6360   77.6660   14.1160 O.2   128  SER128     -0.2714
     28  CB       -18.3260   76.2520   14.9330 C.3   128  SER128      0.2130
     29  OG       -19.1740   77.2250   14.3410 O.3   128  SER128     -0.2179
     30  N        -16.9240   77.5220   12.2590 N.am  129  GLY129     -0.1939
     31  CA       -16.4550   78.7580   11.6290 C.3   129  GLY129      0.2014
     32  C        -16.5990   78.7090   10.1170 C.2   129  GLY129      0.2639
     33  O        -16.5150   79.7440    9.4380 O.2   129  GLY129     -0.2714
     34  N        -16.8190   77.5090    9.5850 N.am  130  GLY130     -0.1954
     35  CA       -16.8440   77.3050    8.1460 C.3   130  GLY130      0.1869
     36  C        -15.4390   77.3140    7.5700 C.2   130  GLY130      0.2309
     37  O        -14.4470   77.3150    8.3190 O.2   130  GLY130     -0.2863
     38  N        -21.2570   71.2370   20.7190 N.3   182  LYS182     -0.1245
     39  CA       -21.3010   71.6350   19.3010 C.3   182  LYS182      0.1561
     40  C        -22.7020   71.4610   18.6930 C.2   182  LYS182      0.2260
     41  O        -23.1530   72.2970   17.9140 O.2   182  LYS182     -0.2867
     42  CB       -20.2800   70.8580   18.4680 C.3   182  LYS182      0.0271
     43  CG       -20.3320   71.1450   16.9730 C.3   182  LYS182      0.0035
     44  CD       -19.8990   72.5760   16.7050 C.3   182  LYS182      0.0206
     45  CE       -20.4160   73.1100   15.3750 C.3   182  LYS182      0.1093
     46  NZ       -20.2570   72.1190   14.2780 N.3   182  LYS182     -0.1314
     47  N        -24.9330   74.2790   19.9400 N.3   185  HIS185     -0.1226
     48  CA       -24.5530   75.4770   19.1890 C.3   185  HIS185      0.1752
     49  C        -25.2970   75.5190   17.8490 C.2   185  HIS185      0.2596
     50  O        -25.7480   76.5780   17.4030 O.2   185  HIS185     -0.2718
     51  CB       -23.0310   75.5110   18.9480 C.3   185  HIS185      0.0759
     52  CG       -22.6490   76.1850   17.6670 C.ar  185  HIS185      0.0818
     53  ND1      -22.2930   77.5170   17.5990 N.ar  185  HIS185     -0.2268
     54  CD2      -22.6110   75.7200   16.3980 C.ar  185  HIS185      0.1154
     55  CE1      -22.0570   77.8410   16.3400 C.ar  185  HIS185      0.1986
     56  NE2      -22.2410   76.7680   15.5920 N.ar  185  HIS185     -0.2212
     57  N        -25.4120   74.3600   17.2160 N.am  186  ASN186     -0.1974
     58  CA       -26.0760   74.2540   15.9250 C.3   186  ASN186      0.1688
     59  C        -27.6030   74.3810   16.0370 C.2   186  ASN186      0.2292
     60  O        -28.2520   74.8700   15.1120 O.2   186  ASN186     -0.2864
     61  CB       -25.6890   72.9420   15.2390 C.3   186  ASN186      0.1181
     62  CG       -24.3790   73.0410   14.4370 C.2   186  ASN186      0.2629
     63  OD1      -24.1140   72.2010   13.5820 O.2   186  ASN186     -0.2716
     64  ND2      -23.5750   74.0550   14.6990 N.am  186  ASN186     -0.0877
     65  N        -28.0270   78.0350   16.4980 N.3   189  GLU189     -0.1245
     66  CA       -27.8650   78.5610   15.1560 C.3   189  GLU189      0.1567
     67  C        -29.1850   78.5500   14.3970 C.2   189  GLU189      0.2260
     68  O        -29.6150   79.5920   13.9150 O.2   189  GLU189     -0.2867
     69  CB       -26.7970   77.7550   14.4300 C.3   189  GLU189      0.0388
     70  CG       -26.5180   78.1610   13.0190 C.3   189  GLU189      0.1160
     71  CD       -25.4640   77.2860   12.4140 C.2   189  GLU189      0.3649
     72  OE1      -24.2880   77.4040   12.8030 O.co2 189  GLU189     -0.2457
     73  OE2      -25.8150   76.4630   11.5720 O.co2 189  GLU189     -0.2457
     74  N        -27.8060   68.0820   12.4700 N.3   261  THR261     -0.1218
     75  CA       -27.3870   68.5430   13.8020 C.3   261  THR261      0.1862
     76  C        -28.4340   69.4210   14.5360 C.2   261  THR261      0.2287
     77  O        -28.3830   69.5950   15.7730 O.2   261  THR261     -0.2866
     78  CB       -26.0560   69.3020   13.6650 C.3   261  THR261      0.1770
     79  OG1      -25.4620   69.5010   14.9570 O.3   261  THR261     -0.2211
     80  CG2      -26.2910   70.6350   12.9270 C.3   261  THR261      0.0375
     81  N        -20.4720   80.3740   13.8800 N.3   366  ILE366     -0.1245
     82  CA       -21.5230   81.0590   13.0970 C.3   366  ILE366      0.1561
     83  C        -22.4120   82.0090   13.9240 C.2   366  ILE366      0.2260
     84  O        -22.8050   83.0750   13.4370 O.2   366  ILE366     -0.2867
     85  CB       -22.3870   80.0300   12.3660 C.3   366  ILE366      0.0252
     86  CG1      -21.5140   79.1700   11.4370 C.3   366  ILE366      0.0019
     87  CG2      -23.5590   80.6880   11.6100 C.3   366  ILE366      0.0019
     88  CD1      -20.8000   79.8990   10.2720 C.3   366  ILE366      0.0001
@<TRIPOS>BOND
     1     1     2    1
     2     2     3    1
     3     2     5    1
     4     3     4    2
     5     5     6    1
     6    36    35    1
     7    36    37    2
     8     7     6    1
     9     7     8    1
    10    35    34    1
    11    33    32    2
    12    34    32   am
    13    32    31    1
    14    88    86    1
    15    15    14    2
    16    86    85    1
    17    73    71   ar
    18    87    85    1
    19    31    30    1
    20    14    16   am
    21    14    13    1
    22    30    26   am
    23    85    82    1
    24    71    72   ar
    25    71    70    1
    26    74    75    1
    27    13    10    1
    28     9    10    1
    29    80    78    1
    30    70    69    1
    31    82    81    1
    32    82    83    1
    33    12    11    2
    34    22    21    1
    35    10    11    1
    36    84    83    2
    37    26    25    1
    38    26    27    2
    39    63    62    2
    40    78    75    1
    41    78    79    1
    42    20    19    2
    43    75    76    1
    44    68    67    2
    45    25    24    1
    46    25    28    1
    47    21    23    1
    48    21    18    1
    49    46    45    1
    50    29    28    1
    51    67    66    1
    52    69    66    1
    53    62    64   am
    54    62    61    1
    55    19    24   am
    56    19    18    1
    57    76    77    2
    58    60    59    2
    59    18    17    1
    60    66    65    1
    61    61    58    1
    62    45    44    1
    63    56    55   ar
    64    56    54   ar
    65    58    59    1
    66    58    57    1
    67    55    53   ar
    68    54    52   ar
    69    44    43    1
    70    43    42    1
    71    57    49   am
    72    50    49    2
    73    53    52   ar
    74    52    51    1
    75    49    48    1
    76    41    40    2
    77    42    39    1
    78    40    39    1
    79    51    48    1
    80    48    47    1
    81    39    38    1
