@<TRIPOS>MOLECULE
tmp/2p4sB00.pdb
 153 146 0 0 0
SMALL
GASTEIGER

@<TRIPOS>ATOM
      1  N          9.3290  -22.4530   99.0380 N.3    29  SER29      -0.1217
      2  CA         8.4140  -21.5390   98.3690 C.3    29  SER29       0.1889
      3  C          7.8300  -22.1960   97.1050 C.2    29  SER29       0.2288
      4  O          8.6000  -22.6590   96.2250 O.2    29  SER29      -0.2866
      5  CB         9.1540  -20.2420   98.0210 C.3    29  SER29       0.2089
      6  OG         9.5770  -19.5920   99.1990 O.3    29  SER29      -0.2183
      7  N          6.5150  -15.8320  105.9570 N.3    57  VAL57      -0.1245
      8  CA         6.6900  -15.5830  104.5360 C.3    57  VAL57       0.1561
      9  C          5.4570  -16.0610  103.7670 C.2    57  VAL57       0.2260
     10  O          4.9810  -17.1900  104.0080 O.2    57  VAL57      -0.2867
     11  CB         8.0430  -16.2330  104.0250 C.3    57  VAL57       0.0252
     12  CG1        8.1120  -16.2690  102.5160 C.3    57  VAL57       0.0019
     13  CG2        9.2110  -15.4820  104.6160 C.3    57  VAL57       0.0019
     14  N         13.2100  -18.7210  107.6670 N.3    82  HIS82      -0.1241
     15  CA        14.3350  -18.1680  106.9140 C.3    82  HIS82       0.1621
     16  C         15.1010  -17.2070  107.8050 C.2    82  HIS82       0.2264
     17  O         14.5170  -16.4700  108.6410 O.2    82  HIS82      -0.2867
     18  CB        13.8520  -17.4600  105.6570 C.3    82  HIS82       0.0745
     19  CG        12.9820  -18.3100  104.7670 C.ar   82  HIS82       0.0817
     20  ND1       11.6120  -18.4120  104.9330 N.ar   82  HIS82      -0.2268
     21  CD2       13.2760  -19.0270  103.6510 C.ar   82  HIS82       0.1154
     22  CE1       11.1050  -19.1830  103.9870 C.ar   82  HIS82       0.1986
     23  NE2       12.0960  -19.5750  103.1980 N.ar   82  HIS82      -0.2212
     24  N         16.5530  -14.4780  106.9950 N.3    84  TYR84      -0.1241
     25  CA        16.1700  -13.0650  106.7620 C.3    84  TYR84       0.1605
     26  C         14.9460  -12.6100  107.5790 C.2    84  TYR84       0.2264
     27  O         14.7450  -11.3890  107.7470 O.2    84  TYR84      -0.2867
     28  CB        15.9240  -12.7450  105.2690 C.3    84  TYR84       0.0534
     29  CG        14.8780  -13.6310  104.6150 C.ar   84  TYR84      -0.0201
     30  CD1       13.5160  -13.4710  104.9040 C.ar   84  TYR84      -0.0009
     31  CD2       15.2500  -14.6150  103.7040 C.ar   84  TYR84      -0.0009
     32  CE1       12.5520  -14.2740  104.3160 C.ar   84  TYR84       0.0417
     33  CE2       14.3000  -15.4240  103.1170 C.ar   84  TYR84       0.0417
     34  CZ        12.9330  -15.2560  103.4330 C.ar   84  TYR84       0.1957
     35  OH        11.9620  -16.0690  102.8450 O.3    84  TYR84      -0.2866
     36  N         13.4370  -26.5980   97.9310 N.3   111  ASN111     -0.1225
     37  CA        13.4200  -25.1410   97.9240 C.3   111  ASN111      0.1785
     38  C         13.1790  -24.5980   96.5240 C.2   111  ASN111      0.2597
     39  O         13.2580  -25.3360   95.5520 O.2   111  ASN111     -0.2718
     40  CB        14.7250  -24.5610   98.5310 C.3   111  ASN111      0.1169
     41  CG        15.9700  -25.0180   97.8010 C.2   111  ASN111      0.2627
     42  OD1       16.1850  -24.6740   96.6440 O.2   111  ASN111     -0.2716
     43  ND2       16.8060  -25.7840   98.4770 N.am  111  ASN111     -0.0877
     44  N         12.8560  -23.3060   96.4570 N.am  112  ALA112     -0.1966
     45  CA        12.9380  -22.4990   95.2510 C.3   112  ALA112      0.1728
     46  C         14.3580  -21.9320   95.1110 C.2   112  ALA112      0.2616
     47  O         15.0140  -21.6370   96.1240 O.2   112  ALA112     -0.2715
     48  CB        11.9400  -21.3280   95.3730 C.3   112  ALA112      0.0334
     49  N         14.8180  -21.7140   93.8760 N.am  113  ALA113     -0.1963
     50  CA        16.1210  -21.1040   93.6560 C.3   113  ALA113      0.1728
     51  C         16.1840  -20.3630   92.3370 C.2   113  ALA113      0.2616
     52  O         15.4950  -20.7120   91.3560 O.2   113  ALA113     -0.2715
     53  CB        17.1990  -22.1650   93.7010 C.3   113  ALA113      0.0334
     54  N         17.0110  -19.3280   92.2950 N.am  114  GLY114     -0.1955
     55  CA        17.3060  -18.6650   91.0510 C.3   114  GLY114      0.1869
     56  C         18.3370  -19.4960   90.3070 C.2   114  GLY114      0.2309
     57  O         19.2730  -20.0070   90.9140 O.2   114  GLY114     -0.2863
     58  N         17.0890  -10.5220  102.3180 N.3   194  PRO194     -0.2116
     59  CA        15.9510  -10.9480  101.4700 C.3   194  PRO194      0.1372
     60  C         15.9200  -10.2970  100.0470 C.2   194  PRO194      0.2244
     61  O         15.0740  -10.6380   99.1960 O.2   194  PRO194     -0.2868
     62  CB        14.7490  -10.5450  102.3160 C.3   194  PRO194      0.0268
     63  CG        15.1890   -9.1720  102.8870 C.3   194  PRO194      0.0207
     64  CD        16.7190   -9.3940  103.2150 C.3   194  PRO194      0.0892
     65  N         17.2700   -9.8940   96.2180 N.3   196  PHE196     -0.1227
     66  CA        17.8430  -10.8270   95.2440 C.3   196  PHE196      0.1736
     67  C         19.2190  -10.3410   94.8210 C.2   196  PHE196      0.2595
     68  O         19.6460   -9.2690   95.2220 O.2   196  PHE196     -0.2718
     69  CB        16.8990  -11.0290   94.0450 C.3   196  PHE196      0.0547
     70  CG        15.6080  -11.6810   94.4050 C.ar  196  PHE196     -0.0202
     71  CD1       15.5750  -13.0180   94.7610 C.ar  196  PHE196     -0.0042
     72  CD2       14.4050  -10.9490   94.3900 C.ar  196  PHE196     -0.0042
     73  CE1       14.3620  -13.6660   95.0960 C.ar  196  PHE196     -0.0003
     74  CE2       13.1820  -11.5520   94.7200 C.ar  196  PHE196     -0.0003
     75  CZ        13.1550  -12.9380   95.0850 C.ar  196  PHE196     -0.0000
     76  N         19.9470  -11.1550   94.0570 N.am  197  GLU197     -0.1979
     77  CA        21.3860  -10.8750   93.8420 C.3   197  GLU197      0.1602
     78  C         21.5920   -9.8480   92.7330 C.2   197  GLU197      0.2287
     79  O         20.7800   -9.7700   91.7730 O.2   197  GLU197     -0.2864
     80  CB        22.1970  -12.1460   93.5350 C.3   197  GLU197      0.0415
     81  CG        22.1540  -13.2460   94.6060 C.3   197  GLU197      0.1163
     82  CD        20.7400  -13.7090   94.8900 C.2   197  GLU197      0.3649
     83  OE1       19.9500  -13.8980   93.9130 O.co2 197  GLU197     -0.2457
     84  OE2       20.3960  -13.8560   96.0910 O.co2 197  GLU197     -0.2457
     85  N         20.8380  -20.4520   93.3140 N.3   213  ILE213     -0.1231
     86  CA        21.0080  -19.5250   94.4170 C.3   213  ILE213      0.1692
     87  C         19.7010  -19.4190   95.2120 C.2   213  ILE213      0.2593
     88  O         18.6550  -19.0480   94.6550 O.2   213  ILE213     -0.2718
     89  CB        21.4740  -18.1110   93.9210 C.3   213  ILE213      0.0266
     90  CG1       22.7940  -18.2100   93.1290 C.3   213  ILE213      0.0019
     91  CG2       21.6690  -17.1410   95.1180 C.3   213  ILE213      0.0020
     92  CD1       23.2000  -16.9200   92.4770 C.3   213  ILE213      0.0001
     93  N         19.7610  -19.7850   96.4950 N.am  214  GLY214     -0.1942
     94  CA        18.6080  -19.6710   97.3620 C.3   214  GLY214      0.2014
     95  C         18.9440  -18.9670   98.6660 C.2   214  GLY214      0.2638
     96  O         19.9720  -18.2490   98.7670 O.2   214  GLY214     -0.2714
     97  N         18.0580  -19.1760   99.6540 N.am  215  MET215     -0.1976
     98  CA        18.1790  -18.5660  100.9480 C.3   215  MET215      0.1605
     99  C         17.7760  -19.4880  102.0550 C.2   215  MET215      0.2287
    100  O         17.3140  -19.0110  103.0850 O.2   215  MET215     -0.2864
    101  CB        17.3530  -17.2520  101.0560 C.3   215  MET215      0.0413
    102  CG        17.6190  -16.1950   99.9760 C.3   215  MET215      0.0598
    103  SD        16.4320  -14.8400  100.1190 S.3   215  MET215     -0.1393
    104  CE        16.7190  -13.8880   98.6160 C.3   215  MET215      0.0692
    105  N         12.9360  -21.2080   89.8400 N.3   238  THR238     -0.1203
    106  CA        11.6780  -20.4400   89.8130 C.3   238  THR238      0.1994
    107  C         11.8410  -19.1730   89.0070 C.2   238  THR238      0.2617
    108  O         10.8670  -18.4620   88.7200 O.2   238  THR238     -0.2717
    109  CB        11.1580  -20.1220   91.2530 C.3   238  THR238      0.1784
    110  OG1       12.2030  -19.4940   92.0060 O.3   238  THR238     -0.2211
    111  CG2       10.7740  -21.3890   91.9400 C.3   238  THR238      0.0376
    112  N         13.0830  -18.9030   88.6350 N.am  239  ASN239     -0.1974
    113  CA        13.4370  -17.6640   87.9720 C.3   239  ASN239      0.1688
    114  C         14.9090  -17.7910   87.5530 C.2   239  ASN239      0.2292
    115  O         15.6480  -18.5380   88.1590 O.2   239  ASN239     -0.2864
    116  CB        13.1880  -16.4340   88.8890 C.3   239  ASN239      0.1181
    117  CG        14.0340  -16.4590   90.1900 C.2   239  ASN239      0.2629
    118  OD1       13.8220  -17.3040   91.0450 O.2   239  ASN239     -0.2716
    119  ND2       14.9990  -15.5560   90.3060 N.am  239  ASN239     -0.0877
    120  N         18.5510  -16.0160   87.2220 N.3   241  CYS241     -0.1235
    121  CA        19.3130  -14.9040   87.7650 C.3   241  CYS241      0.1677
    122  C         19.5670  -13.8980   86.6460 C.2   241  CYS241      0.2270
    123  O         19.6860  -14.3090   85.4970 O.2   241  CYS241     -0.2867
    124  CB        20.6180  -15.4230   88.3090 C.3   241  CYS241      0.0956
    125  SG        20.3310  -16.4940   89.6810 S.3   241  CYS241     -0.0801
    126  N         11.9350  -10.1200   89.0080 N.3   251  HIS251     -0.1241
    127  CA        11.8610  -11.0820   90.1160 C.3   251  HIS251      0.1621
    128  C         10.6880  -10.7190   91.0120 C.2   251  HIS251      0.2264
    129  O         10.5620   -9.6000   91.4840 O.2   251  HIS251     -0.2867
    130  CB        13.1500  -11.1300   90.9380 C.3   251  HIS251      0.0745
    131  CG        14.3660  -11.5050   90.1550 C.ar  251  HIS251      0.0817
    132  ND1       15.6120  -10.9780   90.4270 N.ar  251  HIS251     -0.2268
    133  CD2       14.5330  -12.3510   89.1090 C.ar  251  HIS251      0.1154
    134  CE1       16.4940  -11.4930   89.5880 C.ar  251  HIS251      0.1986
    135  NE2       15.8650  -12.3280   88.7790 N.ar  251  HIS251     -0.2212
    136  N          8.2030  -12.5280   94.1160 N.3   253  HIS253     -0.1241
    137  CA         7.8870  -13.6520   95.0360 C.3   253  HIS253      0.1621
    138  C          6.5910  -14.4070   94.6660 C.2   253  HIS253      0.2264
    139  O          6.5690  -15.6460   94.6690 O.2   253  HIS253     -0.2867
    140  CB         7.8510  -13.2090   96.5150 C.3   253  HIS253      0.0745
    141  CG         7.5480  -14.3320   97.4640 C.ar  253  HIS253      0.0817
    142  ND1        8.3630  -15.4430   97.5980 N.ar  253  HIS253     -0.2268
    143  CD2        6.5070  -14.5310   98.3100 C.ar  253  HIS253      0.1154
    144  CE1        7.8490  -16.2660   98.4930 C.ar  253  HIS253      0.1986
    145  NE2        6.7220  -15.7380   98.9430 N.ar  253  HIS253     -0.2212
    146  N          7.2260  -16.4800   91.7050 N.3   256  ILE256     -0.1245
    147  CA         8.1520  -17.5370   92.1430 C.3   256  ILE256      0.1561
    148  C          7.3600  -18.6940   92.8000 C.2   256  ILE256      0.2260
    149  O          7.5280  -19.8680   92.4300 O.2   256  ILE256     -0.2867
    150  CB         9.3100  -16.9400   93.0800 C.3   256  ILE256      0.0252
    151  CG1       10.3590  -16.2310   92.2240 C.3   256  ILE256      0.0019
    152  CG2        9.8990  -18.0220   94.0000 C.3   256  ILE256      0.0019
    153  CD1       11.1920  -15.2310   92.9550 C.3   256  ILE256      0.0001
@<TRIPOS>BOND
     1   123   122    2
     2   122   121    1
     3   120   121    1
     4   114   113    1
     5   114   115    2
     6   121   124    1
     7   113   112    1
     8   113   116    1
     9   124   125    1
    10   112   107   am
    11   108   107    2
    12   135   133   ar
    13   135   134   ar
    14   116   117    1
    15   107   106    1
    16   126   127    1
    17   133   131   ar
    18   134   132   ar
    19   106   105    1
    20   106   109    1
    21   127   130    1
    22   127   128    1
    23   131   132   ar
    24   131   130    1
    25   117   119   am
    26   117   118    2
    27    56    57    2
    28    56    55    1
    29   128   129    2
    30    55    54    1
    31   109   111    1
    32   109   110    1
    33    52    51    2
    34   146   147    1
    35    79    78    2
    36   147   148    1
    37   147   150    1
    38   151   153    1
    39   151   150    1
    40    54    51   am
    41    51    50    1
    42   149   148    2
    43    92    90    1
    44    78    77    1
    45   150   152    1
    46    90    89    1
    47    85    86    1
    48    80    77    1
    49    80    81    1
    50    50    53    1
    51    50    49    1
    52    77    76    1
    53    49    46   am
    54    83    82   ar
    55    89    86    1
    56    89    91    1
    57    69    70    1
    58    69    66    1
    59    76    67   am
    60   136   137    1
    61    72    70   ar
    62    72    74   ar
    63    70    71   ar
    64    86    87    1
    65    81    82    1
    66    88    87    2
    67   138   139    2
    68   138   137    1
    69    74    75   ar
    70    71    73   ar
    71    67    68    2
    72    67    66    1
    73    82    84   ar
    74   137   140    1
    75    75    73   ar
    76    46    45    1
    77    46    47    2
    78    87    93   am
    79    66    65    1
    80    45    48    1
    81    45    44    1
    82    39    38    2
    83     4     3    2
    84    44    38   am
    85    93    94    1
    86   140   141    1
    87    38    37    1
    88    42    41    2
    89     3     2    1
    90    94    95    1
    91   141   142   ar
    92   141   143   ar
    93   142   144   ar
    94    41    43   am
    95    41    40    1
    96    37    36    1
    97    37    40    1
    98     5     2    1
    99     5     6    1
   100   143   145   ar
   101     2     1    1
   102   144   145   ar
   103   104   103    1
   104    95    96    2
   105    95    97   am
   106    61    60    2
   107    97    98    1
   108   102   103    1
   109   102   101    1
   110    60    59    1
   111    98   101    1
   112    98    99    1
   113    59    62    1
   114    59    58    1
   115    99   100    2
   116    62    63    1
   117    58    64    1
   118    12    11    1
   119    35    34    1
   120    63    64    1
   121    33    34   ar
   122    33    31   ar
   123    23    21   ar
   124    23    22   ar
   125    34    32   ar
   126    21    19   ar
   127    31    29   ar
   128     9    10    2
   129     9     8    1
   130    22    20   ar
   131    11     8    1
   132    11    13    1
   133    32    30   ar
   134     8     7    1
   135    29    30   ar
   136    29    28    1
   137    19    20   ar
   138    19    18    1
   139    28    25    1
   140    18    15    1
   141    25    24    1
   142    25    26    1
   143    15    14    1
   144    15    16    1
   145    26    27    2
   146    16    17    2
