@<TRIPOS>MOLECULE
tmp/2p4yA01.pdb
 111 106 0 0 0
SMALL
GASTEIGER

@<TRIPOS>ATOM
      1  N         22.6850   11.6100   12.4260 N.3    49  PHE49      -0.1241
      2  CA        22.6340   11.0870   13.7860 C.3    49  PHE49       0.1605
      3  C         21.5150   11.7420   14.5890 C.2    49  PHE49       0.2264
      4  O         20.8140   11.0760   15.3510 O.2    49  PHE49      -0.2867
      5  CB        23.9740   11.3150   14.4850 C.3    49  PHE49       0.0534
      6  CG        24.0020   10.8600   15.9200 C.ar   49  PHE49      -0.0203
      7  CD1       24.3060    9.5440   16.2390 C.ar   49  PHE49      -0.0042
      8  CD2       23.7440   11.7550   16.9530 C.ar   49  PHE49      -0.0042
      9  CE1       24.3550    9.1260   17.5600 C.ar   49  PHE49      -0.0003
     10  CE2       23.7920   11.3440   18.2740 C.ar   49  PHE49      -0.0003
     11  CZ        24.0980   10.0260   18.5780 C.ar   49  PHE49      -0.0000
     12  N         18.1840   10.2830   13.6160 N.3    52  CYS52      -0.1221
     13  CA        17.9180    8.9890   14.2350 C.3    52  CYS52       0.1808
     14  C         17.5100    9.1650   15.6950 C.2    52  CYS52       0.2601
     15  O         16.7290    8.3850   16.2410 O.2    52  CYS52      -0.2717
     16  CB        19.1560    8.0990   14.1310 C.3    52  CYS52       0.0970
     17  SG        19.6910    7.8540   12.4210 S.3    52  CYS52      -0.0800
     18  N         18.0340   10.2100   16.3200 N.am   53  GLN53      -0.1979
     19  CA        17.6710   10.5200   17.6900 C.3    53  GLN53       0.1601
     20  C         16.2540   11.0640   17.7190 C.2    53  GLN53       0.2287
     21  O         15.4780   10.7590   18.6290 O.2    53  GLN53      -0.2864
     22  CB        18.6330   11.5550   18.2700 C.3    53  GLN53       0.0394
     23  CG        18.3190   11.9350   19.6980 C.3    53  GLN53       0.0908
     24  CD        19.4000   12.7880   20.3190 C.2    53  GLN53       0.2608
     25  OE1       20.5710   12.6950   19.9500 O.2    53  GLN53      -0.2717
     26  NE2       19.0140   13.6280   21.2670 N.am   53  GLN53      -0.0878
     27  N         13.9690    8.0930   17.2380 N.3    56  SER56      -0.1217
     28  CA        13.9500    7.2910   18.4710 C.3    56  SER56       0.1889
     29  C         12.9650    7.8200   19.5030 C.2    56  SER56       0.2288
     30  O         12.1400    7.0760   20.0290 O.2    56  SER56      -0.2866
     31  CB        15.3310    7.2470   19.1150 C.3    56  SER56       0.2089
     32  OG        16.2500    6.5580   18.3000 O.3    56  SER56      -0.2183
     33  N         14.1590    0.3810   24.1400 N.3    90  HIS90      -0.1241
     34  CA        15.1750    0.3340   23.0860 C.3    90  HIS90       0.1621
     35  C         15.3020   -1.0230   22.4050 C.2    90  HIS90       0.2264
     36  O         15.4750   -1.0940   21.1900 O.2    90  HIS90      -0.2867
     37  CB        16.5410    0.7810   23.6190 C.3    90  HIS90       0.0745
     38  CG        16.7360    2.2650   23.5740 C.ar   90  HIS90       0.0817
     39  ND1       16.2830    3.1060   24.5700 N.ar   90  HIS90      -0.2268
     40  CD2       17.2760    3.0640   22.6230 C.ar   90  HIS90       0.1154
     41  CE1       16.5320    4.3600   24.2310 C.ar   90  HIS90       0.1986
     42  NE2       17.1340    4.3620   23.0540 N.ar   90  HIS90      -0.2212
     43  N         14.9410   -1.5210   18.1490 N.3    94  TYR94      -0.1241
     44  CA        15.7810   -2.2450   17.2150 C.3    94  TYR94       0.1605
     45  C         14.9950   -3.3670   16.5240 C.2    94  TYR94       0.2264
     46  O         15.2010   -3.6560   15.3400 O.2    94  TYR94      -0.2867
     47  CB        17.0110   -2.7870   17.9480 C.3    94  TYR94       0.0534
     48  CG        17.8100   -1.6790   18.6020 C.ar   94  TYR94      -0.0201
     49  CD1       18.3450   -1.8280   19.8780 C.ar   94  TYR94      -0.0009
     50  CD2       17.9970   -0.4640   17.9520 C.ar   94  TYR94      -0.0009
     51  CE1       19.0400   -0.7970   20.4820 C.ar   94  TYR94       0.0417
     52  CE2       18.6850    0.5690   18.5470 C.ar   94  TYR94       0.0417
     53  CZ        19.2040    0.4010   19.8110 C.ar   94  TYR94       0.1957
     54  OH        19.8740    1.4470   20.4060 O.3    94  TYR94      -0.2866
     55  N         27.7570    3.3860   13.6660 N.3   130  PHE130     -0.1241
     56  CA        26.5820    3.7460   14.4380 C.3   130  PHE130      0.1605
     57  C         25.3740    2.8670   14.1080 C.2   130  PHE130      0.2264
     58  O         24.7380    2.3230   15.0100 O.2   130  PHE130     -0.2867
     59  CB        26.2610    5.2220   14.1890 C.3   130  PHE130      0.0534
     60  CG        24.8600    5.6060   14.5260 C.ar  130  PHE130     -0.0203
     61  CD1       24.3440    5.3650   15.7850 C.ar  130  PHE130     -0.0042
     62  CD2       24.0600    6.2270   13.5800 C.ar  130  PHE130     -0.0042
     63  CE1       23.0520    5.7380   16.0990 C.ar  130  PHE130     -0.0003
     64  CE2       22.7680    6.6020   13.8850 C.ar  130  PHE130     -0.0003
     65  CZ        22.2620    6.3580   15.1470 C.ar  130  PHE130     -0.0000
     66  N         25.3230    0.1580   21.8850 N.3   216  HIS216     -0.1241
     67  CA        24.8820    1.4710   21.4430 C.3   216  HIS216      0.1621
     68  C         25.1370    2.4980   22.5480 C.2   216  HIS216      0.2264
     69  O         25.5250    3.6390   22.2820 O.2   216  HIS216     -0.2867
     70  CB        23.3900    1.4360   21.1010 C.3   216  HIS216      0.0745
     71  CG        22.8380    2.7620   20.6870 C.ar  216  HIS216      0.0817
     72  ND1       23.0220    3.2840   19.4230 N.ar  216  HIS216     -0.2268
     73  CD2       22.1290    3.6850   21.3750 C.ar  216  HIS216      0.1154
     74  CE1       22.4510    4.4730   19.3540 C.ar  216  HIS216      0.1986
     75  NE2       21.9010    4.7390   20.5260 N.ar  216  HIS216     -0.2212
     76  N         27.3910    5.9060   22.2530 N.3   220  LEU220     -0.1245
     77  CA        26.8700    7.2090   22.6640 C.3   220  LEU220      0.1561
     78  C         27.8280    7.9700   23.5800 C.2   220  LEU220      0.2260
     79  O         27.9710    9.1830   23.4600 O.2   220  LEU220     -0.2867
     80  CB        25.5280    7.0410   23.3850 C.3   220  LEU220      0.0270
     81  CG        24.2540    7.0920   22.5460 C.3   220  LEU220      0.0019
     82  CD1       23.0510    6.8890   23.4540 C.3   220  LEU220      0.0001
     83  CD2       24.1630    8.4350   21.8210 C.3   220  LEU220      0.0001
     84  N         21.7030   15.2620   23.3740 N.3   232  LEU232     -0.1245
     85  CA        20.9600   14.0350   23.6210 C.3   232  LEU232      0.1561
     86  C         19.6660   14.3950   24.3270 C.2   232  LEU232      0.2260
     87  O         19.6860   15.0500   25.3660 O.2   232  LEU232     -0.2867
     88  CB        21.7680   13.0800   24.4950 C.3   232  LEU232      0.0270
     89  CG        21.0850   11.7480   24.8080 C.3   232  LEU232      0.0019
     90  CD1       20.6000   11.0980   23.5220 C.3   232  LEU232      0.0001
     91  CD2       22.0620   10.8380   25.5350 C.3   232  LEU232      0.0001
     92  N         15.7840   10.1440   26.1560 N.3   236  LEU236     -0.1245
     93  CA        16.7680    9.0760   25.9650 C.3   236  LEU236      0.1561
     94  C         17.8130    9.1260   27.0740 C.2   236  LEU236      0.2260
     95  O         18.2810    8.0910   27.5590 O.2   236  LEU236     -0.2867
     96  CB        17.4540    9.2290   24.6090 C.3   236  LEU236      0.0270
     97  CG        16.4950    9.2730   23.4170 C.3   236  LEU236      0.0019
     98  CD1       17.2610    9.6150   22.1540 C.3   236  LEU236      0.0001
     99  CD2       15.7760    7.9290   23.2720 C.3   236  LEU236      0.0001
    100  N         18.8610    6.0140   29.7200 N.3   240  TYR240     -0.1241
    101  CA        20.2110    5.4730   29.8530 C.3   240  TYR240      0.1605
    102  C         20.8520    5.7620   31.2090 C.2   240  TYR240      0.2264
    103  O         21.8540    5.1440   31.5640 O.2   240  TYR240     -0.2867
    104  CB        21.1210    6.0320   28.7560 C.3   240  TYR240      0.0534
    105  CG        20.7470    5.5920   27.3610 C.ar  240  TYR240     -0.0201
    106  CD1       20.6810    6.5090   26.3210 C.ar  240  TYR240     -0.0009
    107  CD2       20.4570    4.2610   27.0820 C.ar  240  TYR240     -0.0009
    108  CE1       20.3360    6.1180   25.0390 C.ar  240  TYR240      0.0417
    109  CE2       20.1110    3.8570   25.7990 C.ar  240  TYR240      0.0417
    110  CZ        20.0540    4.7910   24.7820 C.ar  240  TYR240      0.1957
    111  OH        19.7270    4.4060   23.5020 O.3   240  TYR240     -0.2866
@<TRIPOS>BOND
     1    17    16    1
     2     1     2    1
     3    62    64   ar
     4    62    60   ar
     5    12    13    1
     6    55    56    1
     7     2     5    1
     8     2     3    1
     9    64    65   ar
    10    57    56    1
    11    57    58    2
    12    16    13    1
    13    59    56    1
    14    59    60    1
    15    13    14    1
    16     5     6    1
    17    60    61   ar
    18     3     4    2
    19    65    63   ar
    20    46    45    2
    21    14    15    2
    22    14    18   am
    23    61    63   ar
    24     6     7   ar
    25     6     8   ar
    26     7     9   ar
    27    18    19    1
    28    45    44    1
    29     8    10   ar
    30    44    47    1
    31    44    43    1
    32    27    28    1
    33     9    11   ar
    34    19    20    1
    35    19    22    1
    36    20    21    2
    37    47    48    1
    38    50    52   ar
    39    50    48   ar
    40    22    23    1
    41    10    11   ar
    42    32    31    1
    43    28    31    1
    44    28    29    1
    45    52    53   ar
    46    48    49   ar
    47    74    72   ar
    48    74    75   ar
    49    72    71   ar
    50    29    30    2
    51    23    24    1
    52    53    54    1
    53    53    51   ar
    54    49    51   ar
    55    25    24    2
    56    24    26   am
    57    75    73   ar
    58    71    70    1
    59    71    73   ar
    60    70    67    1
    61    36    35    2
    62    67    66    1
    63    67    68    1
    64    83    81    1
    65    98    97    1
    66    76    77    1
    67    69    68    2
    68    35    34    1
    69    81    80    1
    70    81    82    1
    71    40    42   ar
    72    40    38   ar
    73    77    80    1
    74    77    78    1
    75    42    41   ar
    76    34    37    1
    77    34    33    1
    78    99    97    1
    79    84    85    1
    80    97    96    1
    81    79    78    2
    82   111   110    1
    83    90    89    1
    84    38    37    1
    85    38    39   ar
    86    85    86    1
    87    85    88    1
    88    41    39   ar
    89    86    87    2
    90    88    89    1
    91    96    93    1
    92   110   108   ar
    93   110   109   ar
    94    89    91    1
    95   108   106   ar
    96   109   107   ar
    97    93    92    1
    98    93    94    1
    99   106   105   ar
   100    94    95    2
   101   107   105   ar
   102   105   104    1
   103   104   101    1
   104   100   101    1
   105   101   102    1
   106   102   103    2
