@<TRIPOS>MOLECULE
tmp/2p4yA00.pdb
 224 213 0 0 0
SMALL
GASTEIGER

@<TRIPOS>ATOM
      1  N          1.5590    2.0270   15.6420 N.3    22  PHE22      -0.1241
      2  CA         2.7020    2.1640   14.7450 C.3    22  PHE22       0.1605
      3  C          2.2390    2.4100   13.3070 C.2    22  PHE22       0.2264
      4  O          1.7960    1.4970   12.6150 O.2    22  PHE22      -0.2867
      5  CB         3.5710    0.8990   14.8020 C.3    22  PHE22       0.0534
      6  CG         3.9690    0.4870   16.2040 C.ar   22  PHE22      -0.0203
      7  CD1        3.5050   -0.6980   16.7470 C.ar   22  PHE22      -0.0042
      8  CD2        4.7830    1.2950   16.9770 C.ar   22  PHE22      -0.0042
      9  CE1        3.8460   -1.0680   18.0430 C.ar   22  PHE22      -0.0003
     10  CE2        5.1260    0.9310   18.2740 C.ar   22  PHE22      -0.0003
     11  CZ         4.6580   -0.2480   18.8070 C.ar   22  PHE22      -0.0000
     12  N          3.8700    2.9270   10.5070 N.3    24  LEU24      -0.1245
     13  CA         4.6030    2.2230    9.4600 C.3    24  LEU24       0.1561
     14  C          4.9120    0.7700    9.8490 C.2    24  LEU24       0.2260
     15  O          5.8860    0.4900   10.5460 O.2    24  LEU24      -0.2867
     16  CB         5.8990    2.9690    9.1370 C.3    24  LEU24       0.0270
     17  CG         6.8120    2.3580    8.0710 C.3    24  LEU24       0.0019
     18  CD1        6.0970    2.2930    6.7380 C.3    24  LEU24       0.0001
     19  CD2        8.0730    3.2050    7.9460 C.3    24  LEU24       0.0001
     20  N         22.4710   13.3850   10.2710 N.3    48  ILE48      -0.1245
     21  CA        21.8520   12.0690   10.1970 C.3    48  ILE48       0.1561
     22  C         21.6590   11.4810   11.5890 C.2    48  ILE48       0.2260
     23  O         20.5950   10.9330   11.9020 O.2    48  ILE48      -0.2867
     24  CB        22.7120   11.1010    9.3460 C.3    48  ILE48       0.0252
     25  CG1       22.7170   11.5630    7.8850 C.3    48  ILE48       0.0019
     26  CG2       22.1770    9.6890    9.4540 C.3    48  ILE48       0.0019
     27  CD1       23.4960   10.6720    6.9470 C.3    48  ILE48       0.0001
     28  N         18.8480   13.0020   13.3170 N.3    51  GLY51      -0.1210
     29  CA        17.6090   12.4810   12.7690 C.3    51  GLY51       0.1956
     30  C         17.2110   11.1670   13.4210 C.2    51  GLY51       0.2612
     31  O         16.0430   10.9550   13.7540 O.2    51  GLY51      -0.2717
     32  N         18.1840   10.2830   13.6160 N.am   52  CYS52      -0.1970
     33  CA        17.9180    8.9890   14.2350 C.3    52  CYS52       0.1712
     34  C         17.5100    9.1650   15.6950 C.2    52  CYS52       0.2296
     35  O         16.7290    8.3850   16.2410 O.2    52  CYS52      -0.2864
     36  CB        19.1560    8.0990   14.1310 C.3    52  CYS52       0.0983
     37  SG        19.6910    7.8540   12.4210 S.3    52  CYS52      -0.0798
     38  N         15.9150   11.8660   16.7180 N.3    54  PHE54      -0.1227
     39  CA        14.5740   12.4240   16.6390 C.3    54  PHE54       0.1736
     40  C         13.5440   11.3060   16.4800 C.2    54  PHE54       0.2595
     41  O         12.5220   11.2950   17.1600 O.2    54  PHE54      -0.2718
     42  CB        14.4700   13.3970   15.4620 C.3    54  PHE54       0.0547
     43  CG        13.0520   13.7270   15.0720 C.ar   54  PHE54      -0.0202
     44  CD1       12.4460   14.8810   15.5270 C.ar   54  PHE54      -0.0042
     45  CD2       12.3230   12.8690   14.2620 C.ar   54  PHE54      -0.0042
     46  CE1       11.1350   15.1740   15.1840 C.ar   54  PHE54      -0.0003
     47  CE2       11.0200   13.1560   13.9200 C.ar   54  PHE54      -0.0003
     48  CZ        10.4240   14.3100   14.3820 C.ar   54  PHE54      -0.0000
     49  N         13.8220   10.3740   15.5740 N.am   55  ARG55      -0.1966
     50  CA        12.9390    9.2400   15.3400 C.3    55  ARG55       0.1729
     51  C         12.8440    8.3430   16.5710 C.2    55  ARG55       0.2616
     52  O         11.7580    7.8930   16.9190 O.2    55  ARG55      -0.2715
     53  CB        13.4220    8.4200   14.1310 C.3    55  ARG55       0.0348
     54  CG        12.4750    8.4710   12.9360 C.3    55  ARG55       0.0492
     55  CD        12.2270    9.9140   12.5240 C.3    55  ARG55       0.2205
     56  NE        11.0660   10.0960   11.6500 N.pl3  55  ARG55      -0.0865
     57  CZ         9.8330    9.6730   11.9280 C.cat  55  ARG55       0.5346
     58  NH1        9.5840    9.0250   13.0630 N.pl3  55  ARG55       0.1354
     59  NH2        8.8410    9.9180   11.0810 N.pl3  55  ARG55       0.1354
     60  N         13.9690    8.0930   17.2380 N.am   56  SER56      -0.1950
     61  CA        13.9500    7.2910   18.4710 C.3    56  SER56       0.1924
     62  C         12.9650    7.8200   19.5030 C.2    56  SER56       0.2314
     63  O         12.1400    7.0760   20.0290 O.2    56  SER56      -0.2863
     64  CB        15.3310    7.2470   19.1150 C.3    56  SER56       0.2116
     65  OG        16.2500    6.5580   18.3000 O.3    56  SER56      -0.2180
     66  N          9.6220    7.0930   18.4540 N.3    59  ALA59      -0.1245
     67  CA         9.3520    5.6670   18.6250 C.3    59  ALA59       0.1562
     68  C          9.0890    5.3520   20.0890 C.2    59  ALA59       0.2260
     69  O          8.2140    4.5520   20.3980 O.2    59  ALA59      -0.2867
     70  CB        10.5270    4.8310   18.1120 C.3    59  ALA59       0.0290
     71  N          5.6020    6.1780   20.7240 N.3    62  GLU62      -0.1231
     72  CA         4.7220    5.1990   20.1030 C.3    62  GLU62       0.1699
     73  C          4.7210    3.8830   20.8710 C.2    62  GLU62       0.2592
     74  O          3.6700    3.2750   21.0840 O.2    62  GLU62      -0.2718
     75  CB         5.1490    4.9670   18.6510 C.3    62  GLU62       0.0402
     76  CG         4.9100    6.1800   17.7680 C.3    62  GLU62       0.1161
     77  CD         5.3070    5.9520   16.3190 C.2    62  GLU62       0.3649
     78  OE1        5.9760    4.9350   16.0370 O.co2  62  GLU62      -0.2457
     79  OE2        4.9530    6.7970   15.4640 O.co2  62  GLU62      -0.2457
     80  N          5.8930    3.4450   21.3060 N.am   63  ILE63      -0.1980
     81  CA         5.9660    2.2050   22.0630 C.3    63  ILE63       0.1595
     82  C          5.2810    2.3720   23.4190 C.2    63  ILE63       0.2287
     83  O          4.6500    1.4470   23.9250 O.2    63  ILE63      -0.2864
     84  CB         7.4280    1.7600   22.2500 C.3    63  ILE63       0.0276
     85  CG1        8.0370    1.4350   20.8860 C.3    63  ILE63       0.0022
     86  CG2        7.4860    0.5570   23.1570 C.3    63  ILE63       0.0022
     87  CD1        9.5520    1.3990   20.8490 C.3    63  ILE63       0.0001
     88  N         14.1590    0.3810   24.1400 N.3    90  HIS90      -0.1241
     89  CA        15.1750    0.3340   23.0860 C.3    90  HIS90       0.1621
     90  C         15.3020   -1.0230   22.4050 C.2    90  HIS90       0.2264
     91  O         15.4750   -1.0940   21.1900 O.2    90  HIS90      -0.2867
     92  CB        16.5410    0.7810   23.6190 C.3    90  HIS90       0.0745
     93  CG        16.7360    2.2650   23.5740 C.ar   90  HIS90       0.0817
     94  ND1       16.2830    3.1060   24.5700 N.ar   90  HIS90      -0.2268
     95  CD2       17.2760    3.0640   22.6230 C.ar   90  HIS90       0.1154
     96  CE1       16.5320    4.3600   24.2310 C.ar   90  HIS90       0.1986
     97  NE2       17.1340    4.3620   23.0540 N.ar   90  HIS90      -0.2212
     98  N         12.7500   -0.8390   19.8710 N.3    93  ILE93      -0.1231
     99  CA        13.1320    0.0090   18.7500 C.3    93  ILE93       0.1692
    100  C         13.9620   -0.7400   17.7000 C.2    93  ILE93       0.2592
    101  O         13.7090   -0.6230   16.4950 O.2    93  ILE93      -0.2718
    102  CB        13.9150    1.2640   19.2360 C.3    93  ILE93       0.0266
    103  CG1       12.9430    2.2560   19.8830 C.3    93  ILE93       0.0019
    104  CG2       14.6500    1.9140   18.0680 C.3    93  ILE93       0.0020
    105  CD1       13.5980    3.4980   20.4640 C.3    93  ILE93       0.0001
    106  N         14.9410   -1.5210   18.1490 N.am   94  TYR94      -0.1976
    107  CA        15.7810   -2.2450   17.2150 C.3    94  TYR94       0.1639
    108  C         14.9950   -3.3670   16.5240 C.2    94  TYR94       0.2290
    109  O         15.2010   -3.6560   15.3400 O.2    94  TYR94      -0.2864
    110  CB        17.0110   -2.7870   17.9480 C.3    94  TYR94       0.0560
    111  CG        17.8100   -1.6790   18.6020 C.ar   94  TYR94      -0.0198
    112  CD1       18.3450   -1.8280   19.8780 C.ar   94  TYR94      -0.0009
    113  CD2       17.9970   -0.4640   17.9520 C.ar   94  TYR94      -0.0009
    114  CE1       19.0400   -0.7970   20.4820 C.ar   94  TYR94       0.0417
    115  CE2       18.6850    0.5690   18.5470 C.ar   94  TYR94       0.0417
    116  CZ        19.2040    0.4010   19.8110 C.ar   94  TYR94       0.1957
    117  OH        19.8740    1.4470   20.4060 O.3    94  TYR94      -0.2866
    118  N         11.6170   -3.3150   15.8180 N.3    96  MET96      -0.1230
    119  CA        10.7780   -2.6580   14.8230 C.3    96  MET96       0.1702
    120  C         11.6270   -2.0820   13.6980 C.2    96  MET96       0.2592
    121  O         11.1890   -2.0270   12.5520 O.2    96  MET96      -0.2718
    122  CB         9.9620   -1.5400   15.4760 C.3    96  MET96       0.0401
    123  CG         9.0430   -2.0110   16.5940 C.3    96  MET96       0.0596
    124  SD         7.7180   -3.0860   16.0150 S.3    96  MET96      -0.1393
    125  CE         6.5300   -1.8750   15.3900 C.3    96  MET96       0.0692
    126  N         12.8440   -1.6610   14.0340 N.am   97  LEU97      -0.1980
    127  CA        13.7750   -1.1150   13.0620 C.3    97  LEU97       0.1596
    128  C         14.1300   -2.1120   11.9570 C.2    97  LEU97       0.2287
    129  O         14.2680   -1.7200   10.7990 O.2    97  LEU97      -0.2864
    130  CB        15.0680   -0.6680   13.7540 C.3    97  LEU97       0.0297
    131  CG        16.0850    0.0810   12.8770 C.3    97  LEU97       0.0022
    132  CD1       15.3930    1.2240   12.1210 C.3    97  LEU97       0.0001
    133  CD2       17.2170    0.6290   13.7660 C.3    97  LEU97       0.0001
    134  N         12.1850   -2.2230    8.8320 N.3   100  LEU100     -0.1245
    135  CA        12.3910   -1.1650    7.8600 C.3   100  LEU100      0.1561
    136  C         13.6730   -1.4100    7.0650 C.2   100  LEU100      0.2260
    137  O         14.0000   -0.6530    6.1450 O.2   100  LEU100     -0.2867
    138  CB        12.4800    0.1820    8.5760 C.3   100  LEU100      0.0270
    139  CG        11.2020    0.8000    9.1400 C.3   100  LEU100      0.0019
    140  CD1       10.1660   -0.2620    9.3490 C.3   100  LEU100      0.0001
    141  CD2       11.5130    1.5110   10.4410 C.3   100  LEU100      0.0001
    142  N         17.9160    1.0140    4.5790 N.3   106  VAL106     -0.1231
    143  CA        16.8160    1.1860    5.5110 C.3   106  VAL106      0.1692
    144  C         15.8790    2.2960    5.0130 C.2   106  VAL106      0.2592
    145  O         16.3230    3.2930    4.4400 O.2   106  VAL106     -0.2718
    146  CB        17.3660    1.5290    6.9400 C.3   106  VAL106      0.0266
    147  CG1       18.1230    2.8580    6.9190 C.3   106  VAL106      0.0020
    148  CG2       16.2450    1.5820    7.9380 C.3   106  VAL106      0.0020
    149  N         14.5790    2.1150    5.2190 N.am  107  LEU107     -0.1966
    150  CA        13.6070    3.1200    4.8250 C.3   107  LEU107      0.1728
    151  C         13.7020    4.2980    5.8000 C.2   107  LEU107      0.2616
    152  O         13.8740    4.1010    7.0010 O.2   107  LEU107     -0.2715
    153  CB        12.1920    2.5350    4.8770 C.3   107  LEU107      0.0311
    154  CG        11.7350    1.5390    3.8070 C.3   107  LEU107      0.0022
    155  CD1       10.3190    1.0840    4.1400 C.3   107  LEU107      0.0001
    156  CD2       11.7580    2.2080    2.4230 C.3   107  LEU107      0.0001
    157  N         13.5880    5.5160    5.2880 N.am  108  ILE108     -0.1963
    158  CA        13.5370    6.6800    6.1540 C.3   108  ILE108      0.1727
    159  C         12.4050    7.5920    5.7340 C.2   108  ILE108      0.2616
    160  O         11.8110    7.4010    4.6810 O.2   108  ILE108     -0.2715
    161  CB        14.8510    7.4890    6.1120 C.3   108  ILE108      0.0290
    162  CG1       15.0970    8.0260    4.7050 C.3   108  ILE108      0.0022
    163  CG2       16.0160    6.6250    6.5390 C.3   108  ILE108      0.0023
    164  CD1       16.1910    9.0810    4.6620 C.3   108  ILE108      0.0001
    165  N         12.1080    8.5790    6.5730 N.am  109  SER109     -0.1950
    166  CA        11.1010    9.5880    6.2650 C.3   109  SER109      0.1924
    167  C          9.7390    8.9810    5.9690 C.2   109  SER109      0.2314
    168  O          9.1620    9.2080    4.8980 O.2   109  SER109     -0.2863
    169  CB        11.5550   10.4350    5.0770 C.3   109  SER109      0.2116
    170  OG        10.5440   11.3600    4.7220 O.3   109  SER109     -0.2180
    171  N         17.8940    4.9860    2.6830 N.3   115  MET115     -0.1245
    172  CA        19.3070    5.3270    2.7880 C.3   115  MET115      0.1570
    173  C         20.1490    4.0610    2.8690 C.2   115  MET115      0.2261
    174  O         19.9060    3.2180    3.7240 O.2   115  MET115     -0.2867
    175  CB        19.5450    6.1900    4.0290 C.3   115  MET115      0.0387
    176  CG        20.9940    6.5850    4.2480 C.3   115  MET115      0.0595
    177  SD        21.1240    7.8190    5.5600 S.3   115  MET115     -0.1393
    178  CE        20.0050    9.0590    4.9410 C.3   115  MET115      0.0692
    179  N         25.9540    4.7880    5.0860 N.3   120  LEU120     -0.1245
    180  CA        25.9990    4.9130    6.5380 C.3   120  LEU120      0.1561
    181  C         27.2900    4.3710    7.1500 C.2   120  LEU120      0.2260
    182  O         27.6640    4.7580    8.2530 O.2   120  LEU120     -0.2867
    183  CB        24.7990    4.1960    7.1680 C.3   120  LEU120      0.0270
    184  CG        23.4160    4.8410    7.0620 C.3   120  LEU120      0.0019
    185  CD1       22.3560    3.7880    7.3200 C.3   120  LEU120      0.0001
    186  CD2       23.2810    5.9820    8.0600 C.3   120  LEU120      0.0001
    187  N         27.7570    3.3860   13.6660 N.3   130  PHE130     -0.1227
    188  CA        26.5820    3.7460   14.4380 C.3   130  PHE130      0.1736
    189  C         25.3740    2.8670   14.1080 C.2   130  PHE130      0.2595
    190  O         24.7380    2.3230   15.0100 O.2   130  PHE130     -0.2718
    191  CB        26.2610    5.2220   14.1890 C.3   130  PHE130      0.0547
    192  CG        24.8600    5.6060   14.5260 C.ar  130  PHE130     -0.0202
    193  CD1       24.3440    5.3650   15.7850 C.ar  130  PHE130     -0.0042
    194  CD2       24.0600    6.2270   13.5800 C.ar  130  PHE130     -0.0042
    195  CE1       23.0520    5.7380   16.0990 C.ar  130  PHE130     -0.0003
    196  CE2       22.7680    6.6020   13.8850 C.ar  130  PHE130     -0.0003
    197  CZ        22.2620    6.3580   15.1470 C.ar  130  PHE130     -0.0000
    198  N         25.0610    2.7260   12.8200 N.am  131  MET131     -0.1979
    199  CA        23.9000    1.9440   12.4100 C.3   131  MET131      0.1605
    200  C         24.2320    0.4810   12.1020 C.2   131  MET131      0.2287
    201  O         23.3400   -0.3660   12.1180 O.2   131  MET131     -0.2864
    202  CB        23.2170    2.5880   11.1930 C.3   131  MET131      0.0413
    203  CG        22.4230    3.8540   11.5100 C.3   131  MET131      0.0598
    204  SD        20.9280    3.5990   12.5430 S.3   131  MET131     -0.1393
    205  CE        19.8160    2.9200   11.3660 C.3   131  MET131      0.0692
    206  N         22.8860   -2.6140   14.0220 N.3   134  LYS134     -0.1245
    207  CA        21.4580   -2.7950   13.7720 C.3   134  LYS134      0.1561
    208  C         21.1970   -3.5500   12.4630 C.2   134  LYS134      0.2260
    209  O         20.4000   -4.4840   12.4320 O.2   134  LYS134     -0.2867
    210  CB        20.7500   -1.4380   13.7370 C.3   134  LYS134      0.0271
    211  CG        20.6600   -0.7370   15.0910 C.3   134  LYS134      0.0035
    212  CD        22.0250   -0.3140   15.6100 C.3   134  LYS134      0.0206
    213  CE        21.9010    0.9100   16.5150 C.3   134  LYS134      0.1093
    214  NZ        23.1520    1.1820   17.3030 N.3   134  LYS134     -0.1314
    215  N         25.3230    0.1580   21.8850 N.3   216  HIS216     -0.1241
    216  CA        24.8820    1.4710   21.4430 C.3   216  HIS216      0.1621
    217  C         25.1370    2.4980   22.5480 C.2   216  HIS216      0.2264
    218  O         25.5250    3.6390   22.2820 O.2   216  HIS216     -0.2867
    219  CB        23.3900    1.4360   21.1010 C.3   216  HIS216      0.0745
    220  CG        22.8380    2.7620   20.6870 C.ar  216  HIS216      0.0817
    221  ND1       23.0220    3.2840   19.4230 N.ar  216  HIS216     -0.2268
    222  CD2       22.1290    3.6850   21.3750 C.ar  216  HIS216      0.1154
    223  CE1       22.4510    4.4730   19.3540 C.ar  216  HIS216      0.1986
    224  NE2       21.9010    4.7390   20.5260 N.ar  216  HIS216     -0.2212
@<TRIPOS>BOND
     1   156   154    1
     2   171   172    1
     3   172   173    1
     4   172   175    1
     5   173   174    2
     6   154   155    1
     7   154   153    1
     8   175   176    1
     9   176   177    1
    10   145   144    2
    11   142   143    1
    12   164   162    1
    13   160   159    2
    14   162   161    1
    15   170   169    1
    16   150   153    1
    17   150   149    1
    18   150   151    1
    19   168   167    2
    20   178   177    1
    21   144   149   am
    22   144   143    1
    23   169   166    1
    24   179   180    1
    25   157   151   am
    26   157   158    1
    27   143   146    1
    28   159   158    1
    29   159   165   am
    30   151   152    2
    31   167   166    1
    32   161   158    1
    33   161   163    1
    34   137   136    2
    35   166   165    1
    36   180   181    1
    37   180   183    1
    38    18    17    1
    39   147   146    1
    40   146   148    1
    41    27    25    1
    42   184   183    1
    43   184   185    1
    44   184   186    1
    45   136   135    1
    46   181   182    2
    47   135   138    1
    48   135   134    1
    49    25    24    1
    50    19    17    1
    51    17    16    1
    52   138   139    1
    53    16    13    1
    54   139   140    1
    55   139   141    1
    56    24    26    1
    57    24    21    1
    58    13    14    1
    59    13    12    1
    60    14    15    2
    61    21    20    1
    62    21    22    1
    63   129   128    2
    64    59    57    1
    65   202   203    1
    66   202   199    1
    67   205   204    1
    68   203   204    1
    69    22    23    2
    70    56    57    2
    71    56    55    1
    72    57    58    1
    73   128   127    1
    74   200   201    2
    75   200   199    1
    76   132   131    1
    77   199   198    1
    78    37    36    1
    79   209   208    2
    80   208   207    1
    81    55    54    1
    82   121   120    2
    83     4     3    2
    84    29    28    1
    85    29    30    1
    86   198   189   am
    87   131   130    1
    88   131   133    1
    89    54    53    1
    90   127   130    1
    91   127   126    1
    92     3     2    1
    93    30    32   am
    94    30    31    2
    95   194   196   ar
    96   194   192   ar
    97    32    33    1
    98   187   188    1
    99   120   126   am
   100   120   119    1
   101   210   207    1
   102   210   211    1
   103   207   206    1
   104   196   197   ar
   105    47    45   ar
   106    47    48   ar
   107   189   188    1
   108   189   190    2
   109    36    33    1
   110    53    50    1
   111   191   188    1
   112   191   192    1
   113    33    34    1
   114    45    43   ar
   115    48    46   ar
   116   192   193   ar
   117     2     5    1
   118     2     1    1
   119     5     6    1
   120   119   122    1
   121   119   118    1
   122    43    42    1
   123    43    44   ar
   124   211   212    1
   125   197   195   ar
   126    46    44   ar
   127   109   108    2
   128    50    49    1
   129    50    51    1
   130   125   124    1
   131    42    39    1
   132    79    77   ar
   133   122   123    1
   134    49    40   am
   135   212   213    1
   136    34    35    2
   137   193   195   ar
   138   124   123    1
   139    78    77   ar
   140     6     7   ar
   141     6     8   ar
   142    77    76    1
   143    40    39    1
   144    40    41    2
   145   101   100    2
   146   213   214    1
   147   108   107    1
   148    51    52    2
   149    51    60   am
   150    39    38    1
   151     7     9   ar
   152     8    10   ar
   153   107   110    1
   154   107   106    1
   155    60    61    1
   156   100   106   am
   157   100    99    1
   158    76    75    1
   159   110   111    1
   160   113   115   ar
   161   113   111   ar
   162     9    11   ar
   163   104   102    1
   164    70    67    1
   165    10    11   ar
   166    65    64    1
   167    66    67    1
   168    61    64    1
   169    61    62    1
   170   115   116   ar
   171   111   112   ar
   172    67    68    1
   173    75    72    1
   174    99   102    1
   175    99    98    1
   176   102   103    1
   177   223   221   ar
   178   223   224   ar
   179   221   220   ar
   180    62    63    2
   181   116   117    1
   182   116   114   ar
   183   112   114   ar
   184   103   105    1
   185    68    69    2
   186    72    71    1
   187    72    73    1
   188   224   222   ar
   189   220   219    1
   190   220   222   ar
   191    87    85    1
   192    73    74    2
   193    73    80   am
   194    85    84    1
   195   219   216    1
   196    91    90    2
   197    80    81    1
   198   216   215    1
   199   216   217    1
   200    81    84    1
   201    81    82    1
   202    84    86    1
   203   218   217    2
   204    90    89    1
   205    95    97   ar
   206    95    93   ar
   207    97    96   ar
   208    89    92    1
   209    89    88    1
   210    82    83    2
   211    93    92    1
   212    93    94   ar
   213    96    94   ar
