@<TRIPOS>MOLECULE
tmp/2p53B00.pdb
 170 163 0 0 0
SMALL
GASTEIGER

@<TRIPOS>ATOM
      1  N         -5.0980   27.3380  -41.0170 N.3    61  ASN61      -0.1240
      2  CA        -4.8870   28.7840  -41.0030 C.3    61  ASN61       0.1653
      3  C         -3.4480   29.1660  -41.3240 C.2    61  ASN61       0.2266
      4  O         -3.1840   30.2340  -41.8690 O.2    61  ASN61      -0.2867
      5  CB        -5.2490   29.3290  -39.6260 C.3    61  ASN61       0.1155
      6  CG        -6.5720   28.7880  -39.1220 C.2    61  ASN61       0.2627
      7  OD1       -7.6330   29.1860  -39.5870 O.2    61  ASN61      -0.2716
      8  ND2       -6.5100   27.8570  -38.1770 N.am   61  ASN61      -0.0877
      9  N         -9.7910   33.4680  -42.2140 N.3   100  ILE100     -0.1245
     10  CA       -10.8700   33.7730  -41.2750 C.3   100  ILE100      0.1561
     11  C        -11.3810   35.2100  -41.3100 C.2   100  ILE100      0.2260
     12  O        -10.7980   36.0830  -41.9480 O.2   100  ILE100     -0.2867
     13  CB       -10.4720   33.4500  -39.8160 C.3   100  ILE100      0.0252
     14  CG1       -9.5120   34.5180  -39.2800 C.3   100  ILE100      0.0019
     15  CG2       -9.8330   32.0680  -39.7570 C.3   100  ILE100      0.0019
     16  CD1       -9.1600   34.3580  -37.8110 C.3   100  ILE100      0.0001
     17  N        -13.5500   30.8770  -43.3200 N.3   131  GLU131     -0.1245
     18  CA       -14.2070   30.6810  -42.0350 C.3   131  GLU131      0.1567
     19  C        -14.6120   32.0530  -41.5140 C.2   131  GLU131      0.2260
     20  O        -13.8300   32.7380  -40.8530 O.2   131  GLU131     -0.2867
     21  CB       -13.2730   30.0030  -41.0260 C.3   131  GLU131      0.0388
     22  CG       -14.0440   29.3220  -39.8900 C.3   131  GLU131      0.1160
     23  CD       -13.2220   29.1140  -38.6290 C.2   131  GLU131      0.3649
     24  OE1      -13.5350   28.1690  -37.8740 O.co2 131  GLU131     -0.2457
     25  OE2      -12.2820   29.8990  -38.3730 O.co2 131  GLU131     -0.2457
     26  N        -19.8950   33.1120  -30.0060 N.3   139  LYS139     -0.1245
     27  CA       -18.9810   32.0060  -30.2890 C.3   139  LYS139      0.1561
     28  C        -17.8960   32.3860  -31.2920 C.2   139  LYS139      0.2260
     29  O        -17.4430   31.5480  -32.0780 O.2   139  LYS139     -0.2867
     30  CB       -19.7670   30.8060  -30.8190 C.3   139  LYS139      0.0271
     31  CG       -20.6670   30.1520  -29.7750 C.3   139  LYS139      0.0035
     32  CD       -19.8350   29.5110  -28.6750 C.3   139  LYS139      0.0206
     33  CE       -20.7260   28.8420  -27.6390 C.3   139  LYS139      0.1093
     34  NZ       -19.9290   28.1330  -26.5980 N.3   139  LYS139     -0.1314
     35  N        -14.9160   32.9180  -30.7290 N.3   141  GLY141     -0.1210
     36  CA       -13.6430   32.2990  -30.4070 C.3   141  GLY141      0.1956
     37  C        -12.5430   33.3450  -30.4650 C.2   141  GLY141      0.2613
     38  O        -12.6560   34.3940  -29.8370 O.2   141  GLY141     -0.2717
     39  N        -11.4870   33.0810  -31.2250 N.am  142  THR142     -0.1938
     40  CA       -10.3830   34.0280  -31.3310 C.3   142  THR142      0.2028
     41  C        -10.5580   35.0670  -32.4480 C.2   142  THR142      0.2642
     42  O         -9.6900   35.9130  -32.6390 O.2   142  THR142     -0.2714
     43  CB        -9.0470   33.2900  -31.5750 C.3   142  THR142      0.1808
     44  OG1       -7.9550   34.1420  -31.2130 O.3   142  THR142     -0.2208
     45  CG2       -8.9070   32.9120  -33.0460 C.3   142  THR142      0.0379
     46  N        -11.6700   35.0110  -33.1760 N.am  143  HIS143     -0.1973
     47  CA       -11.9000   35.9440  -34.2780 C.3   143  HIS143      0.1656
     48  C        -12.0400   37.4000  -33.8310 C.2   143  HIS143      0.2291
     49  O        -12.4590   37.6790  -32.7050 O.2   143  HIS143     -0.2864
     50  CB       -13.1450   35.5350  -35.0820 C.3   143  HIS143      0.0771
     51  CG       -12.9630   34.2880  -35.8950 C.ar  143  HIS143      0.0820
     52  ND1      -13.5290   34.1230  -37.1420 N.ar  143  HIS143     -0.2267
     53  CD2      -12.2880   33.1410  -35.6350 C.ar  143  HIS143      0.1154
     54  CE1      -13.2090   32.9320  -37.6160 C.ar  143  HIS143      0.1986
     55  NE2      -12.4570   32.3150  -36.7210 N.ar  143  HIS143     -0.2212
     56  N        -18.6330   28.2850  -35.3530 N.3   195  HIS195     -0.1241
     57  CA       -18.6750   29.5400  -34.5950 C.3   195  HIS195      0.1621
     58  C        -20.1280   29.9780  -34.4990 C.2   195  HIS195      0.2264
     59  O        -20.4880   31.1160  -34.8280 O.2   195  HIS195     -0.2867
     60  CB       -17.8270   30.6050  -35.3030 C.3   195  HIS195      0.0745
     61  CG       -16.3610   30.2920  -35.3030 C.ar  195  HIS195      0.0817
     62  ND1      -15.5250   30.6420  -34.2630 N.ar  195  HIS195     -0.2268
     63  CD2      -15.6020   29.5870  -36.1750 C.ar  195  HIS195      0.1154
     64  CE1      -14.3150   30.1610  -34.4920 C.ar  195  HIS195      0.1986
     65  NE2      -14.3360   29.5140  -35.6450 N.ar  195  HIS195     -0.2212
     66  N        -14.7100   22.0850  -36.9480 N.3   216  HIS216     -0.1241
     67  CA       -14.1530   21.6470  -35.6670 C.3   216  HIS216      0.1621
     68  C        -15.1820   21.3990  -34.5750 C.2   216  HIS216      0.2264
     69  O        -15.4110   22.2350  -33.7040 O.2   216  HIS216     -0.2867
     70  CB       -13.0420   22.5990  -35.1680 C.3   216  HIS216      0.0745
     71  CG       -13.4130   24.0480  -35.1690 C.ar  216  HIS216      0.0817
     72  ND1      -14.5020   24.5440  -34.4830 N.ar  216  HIS216     -0.2268
     73  CD2      -12.8090   25.1180  -35.7390 C.ar  216  HIS216      0.1154
     74  CE1      -14.5520   25.8570  -34.6320 C.ar  216  HIS216      0.1986
     75  NE2      -13.5360   26.2280  -35.3880 N.ar  216  HIS216     -0.2212
     76  N        -17.4740   20.6730  -31.5600 N.3   218  TYR218     -0.1227
     77  CA       -17.3870   21.0890  -30.1540 C.3   218  TYR218      0.1736
     78  C        -16.8460   22.5060  -29.9750 C.2   218  TYR218      0.2595
     79  O        -17.4060   23.2950  -29.2120 O.2   218  TYR218     -0.2718
     80  CB       -16.5190   20.1270  -29.3280 C.3   218  TYR218      0.0548
     81  CG       -17.0580   18.7190  -29.2040 C.ar  218  TYR218     -0.0200
     82  CD1      -16.4210   17.6540  -29.8380 C.ar  218  TYR218     -0.0009
     83  CD2      -18.1960   18.4470  -28.4420 C.ar  218  TYR218     -0.0009
     84  CE1      -16.9000   16.3490  -29.7160 C.ar  218  TYR218      0.0417
     85  CE2      -18.6850   17.1390  -28.3140 C.ar  218  TYR218      0.0417
     86  CZ       -18.0300   16.1000  -28.9530 C.ar  218  TYR218      0.1957
     87  OH       -18.4880   14.8060  -28.8340 O.3   218  TYR218     -0.2866
     88  N        -15.7560   22.8240  -30.6670 N.am  219  ASN219     -0.1960
     89  CA       -15.1420   24.1480  -30.5550 C.3   219  ASN219      0.1819
     90  C        -15.9930   25.2350  -31.2170 C.2   219  ASN219      0.2621
     91  O        -16.4570   25.0780  -32.3480 O.2   219  ASN219     -0.2715
     92  CB       -13.7410   24.1180  -31.1740 C.3   219  ASN219      0.1195
     93  CG       -12.8320   23.0780  -30.5230 C.2   219  ASN219      0.2630
     94  OD1      -12.1950   22.2830  -31.2120 O.2   219  ASN219     -0.2716
     95  ND2      -12.7640   23.0870  -29.1900 N.am  219  ASN219     -0.0877
     96  N        -16.1880   26.3420  -30.5040 N.am  220  ALA220     -0.1963
     97  CA       -16.9840   27.4680  -31.0000 C.3   220  ALA220      0.1728
     98  C        -18.4210   27.0450  -31.2810 C.2   220  ALA220      0.2616
     99  O        -19.0480   27.5170  -32.2310 O.2   220  ALA220     -0.2715
    100  CB       -16.3530   28.0620  -32.2600 C.3   220  ALA220      0.0334
    101  N        -18.9220   26.1510  -30.4300 N.am  221  MET221     -0.1977
    102  CA       -20.2790   25.6200  -30.4960 C.3   221  MET221      0.1605
    103  C        -20.8120   25.5920  -29.0730 C.2   221  MET221      0.2287
    104  O        -20.0410   25.6520  -28.1160 O.2   221  MET221     -0.2864
    105  CB       -20.2890   24.1840  -31.0220 C.3   221  MET221      0.0413
    106  CG       -20.0530   24.0270  -32.4950 C.3   221  MET221      0.0598
    107  SD       -20.1490   22.2810  -32.9910 S.3   221  MET221     -0.1393
    108  CE       -19.3110   22.3890  -34.5920 C.3   221  MET221      0.0692
    109  N        -10.5600   18.5120  -34.2140 N.3   246  ILE246     -0.1245
    110  CA        -9.1540   18.7660  -33.9450 C.3   246  ILE246      0.1561
    111  C         -8.6640   17.7180  -32.9550 C.2   246  ILE246      0.2260
    112  O         -9.0360   17.7330  -31.7820 O.2   246  ILE246     -0.2867
    113  CB        -8.9620   20.1860  -33.3580 C.3   246  ILE246      0.0252
    114  CG1       -9.5950   21.2230  -34.2860 C.3   246  ILE246      0.0019
    115  CG2       -7.4850   20.4880  -33.1900 C.3   246  ILE246      0.0019
    116  CD1       -9.7190   22.6030  -33.6760 C.3   246  ILE246      0.0001
    117  N         -7.6950   20.6650  -27.8290 N.3   251  HIS251     -0.1241
    118  CA        -8.9360   21.3500  -28.1900 C.3   251  HIS251      0.1621
    119  C        -10.1860   20.6020  -27.7360 C.2   251  HIS251      0.2264
    120  O        -11.1890   21.2150  -27.3660 O.2   251  HIS251     -0.2867
    121  CB        -9.0190   21.5710  -29.7040 C.3   251  HIS251      0.0745
    122  CG        -8.2830   22.7850  -30.1820 C.ar  251  HIS251      0.0817
    123  ND1       -6.9140   22.8160  -30.3370 N.ar  251  HIS251     -0.2268
    124  CD2       -8.7250   24.0230  -30.5040 C.ar  251  HIS251      0.1154
    125  CE1       -6.5440   24.0210  -30.7340 C.ar  251  HIS251      0.1986
    126  NE2       -7.6240   24.7740  -30.8420 N.ar  251  HIS251     -0.2212
    127  N         -6.4340   22.5080  -38.1810 N.3   273  ASN273     -0.1240
    128  CA        -6.8370   23.8700  -37.8160 C.3   273  ASN273      0.1653
    129  C         -5.5670   24.4860  -37.2390 C.2   273  ASN273      0.2266
    130  O         -5.6070   25.3150  -36.3410 O.2   273  ASN273     -0.2867
    131  CB        -7.9510   23.8880  -36.7590 C.3   273  ASN273      0.1155
    132  CG        -8.5030   25.2920  -36.5240 C.2   273  ASN273      0.2627
    133  OD1       -8.7470   26.0350  -37.4760 O.2   273  ASN273     -0.2716
    134  ND2       -8.7060   25.6590  -35.2600 N.am  273  ASN273     -0.0877
    135  N         -2.3750   36.8770  -35.2440 N.3   287  PHE287     -0.1241
    136  CA        -3.5660   36.2150  -35.7570 C.3   287  PHE287      0.1605
    137  C         -4.8130   36.9350  -35.2330 C.2   287  PHE287      0.2264
    138  O         -4.9290   37.2110  -34.0320 O.2   287  PHE287     -0.2867
    139  CB        -3.5560   34.7400  -35.3140 C.3   287  PHE287      0.0534
    140  CG        -4.5350   33.8570  -36.0540 C.ar  287  PHE287     -0.0203
    141  CD1       -5.0430   34.2290  -37.3020 C.ar  287  PHE287     -0.0042
    142  CD2       -4.9130   32.6250  -35.5190 C.ar  287  PHE287     -0.0042
    143  CE1       -5.9090   33.3900  -38.0040 C.ar  287  PHE287     -0.0003
    144  CE2       -5.7810   31.7750  -36.2150 C.ar  287  PHE287     -0.0003
    145  CZ        -6.2800   32.1590  -37.4610 C.ar  287  PHE287     -0.0000
    146  N         -7.0960   32.8400  -24.6670 N.3   305  THR305     -0.1203
    147  CA        -8.0500   32.2560  -25.6030 C.3   305  THR305      0.1994
    148  C         -7.3310   31.3940  -26.6510 C.2   305  THR305      0.2618
    149  O         -6.4000   31.8610  -27.3110 O.2   305  THR305     -0.2717
    150  CB        -8.8440   33.3710  -26.3200 C.3   305  THR305      0.1784
    151  OG1       -9.4950   34.1910  -25.3430 O.3   305  THR305     -0.2211
    152  CG2       -9.8840   32.7800  -27.2640 C.3   305  THR305      0.0376
    153  N         -7.7510   30.1350  -26.7900 N.am  306  LEU306     -0.1965
    154  CA        -7.1450   29.2420  -27.7770 C.3   306  LEU306      0.1728
    155  C         -7.3300   29.8610  -29.1540 C.2   306  LEU306      0.2617
    156  O         -8.4290   30.2650  -29.5180 O.2   306  LEU306     -0.2715
    157  CB        -7.7970   27.8550  -27.7500 C.3   306  LEU306      0.0311
    158  CG        -7.2890   26.8560  -26.7130 C.3   306  LEU306      0.0022
    159  CD1       -7.9550   25.5060  -26.9400 C.3   306  LEU306      0.0001
    160  CD2       -5.7760   26.7120  -26.8310 C.3   306  LEU306      0.0001
    161  N         -6.2580   29.9140  -29.9290 N.am  307  SER307     -0.1936
    162  CA        -6.3300   30.5310  -31.2450 C.3   307  SER307      0.2055
    163  C         -5.7330   29.6520  -32.3270 C.2   307  SER307      0.2643
    164  O         -4.7380   30.0170  -32.9510 O.2   307  SER307     -0.2714
    165  CB        -5.6040   31.8740  -31.1920 C.3   307  SER307      0.2130
    166  OG        -6.0320   32.6050  -30.0520 O.3   307  SER307     -0.2179
    167  N         -6.3590   28.5010  -32.5600 N.am  308  GLY308     -0.1954
    168  CA        -5.8510   27.5750  -33.5540 C.3   308  GLY308      0.1869
    169  C         -4.9390   26.5890  -32.8510 C.2   308  GLY308      0.2309
    170  O         -4.7180   26.7110  -31.6460 O.2   308  GLY308     -0.2863
@<TRIPOS>BOND
     1    17    18    1
     2     9    10    1
     3    18    19    1
     4    18    21    1
     5    12    11    2
     6     4     3    2
     7    19    20    2
     8     3     2    1
     9    11    10    1
    10    10    13    1
    11    21    22    1
    12     1     2    1
    13     2     5    1
    14    22    23    1
    15    13    15    1
    16    13    14    1
    17     5     6    1
    18     7     6    2
    19    14    16    1
    20     6     8   am
    21    23    25   ar
    22    23    24   ar
    23   127   128    1
    24   143   145   ar
    25   143   141   ar
    26   128   129    1
    27   128   131    1
    28    54    52   ar
    29    54    55   ar
    30   133   132    2
    31   145   144   ar
    32   141   140   ar
    33   129   130    2
    34    52    51   ar
    35    66    67    1
    36   131   132    1
    37    55    53   ar
    38   132   134   am
    39   144   142   ar
    40    63    65   ar
    41    63    61   ar
    42   140   142   ar
    43   140   139    1
    44    51    53   ar
    45    51    50    1
    46   136   139    1
    47   136   135    1
    48   136   137    1
    49    73    75   ar
    50    73    71   ar
    51    67    70    1
    52    67    68    1
    53    65    64   ar
    54    75    74   ar
    55    56    57    1
    56    61    60    1
    57    61    62   ar
    58    60    57    1
    59   137   138    2
    60    71    70    1
    61    71    72   ar
    62    50    47    1
    63    59    58    2
    64    74    72   ar
    65    57    58    1
    66   108   107    1
    67    68    69    2
    68    64    62   ar
    69   114   116    1
    70   114   113    1
    71    47    48    1
    72    47    46    1
    73   109   110    1
    74   110   113    1
    75   110   111    1
    76    48    49    2
    77   168   169    1
    78   168   167    1
    79   113   115    1
    80    46    41   am
    81    45    43    1
    82   107   106    1
    83   111   112    2
    84   164   163    2
    85   169   170    2
    86    42    41    2
    87   167   163   am
    88   106   105    1
    89    41    40    1
    90    91    90    2
    91   163   162    1
    92   100    97    1
    93    99    98    2
    94    29    28    2
    95    43    40    1
    96    43    44    1
    97    76    77    1
    98    40    39    1
    99    28    27    1
   100    98    97    1
   101    98   101   am
   102   162   165    1
   103   162   161    1
   104    39    37   am
   105    90    89    1
   106    90    96   am
   107    94    93    2
   108   165   166    1
   109    92    89    1
   110    92    93    1
   111   105   102    1
   112    97    96    1
   113   126   125   ar
   114   126   124   ar
   115    30    27    1
   116    30    31    1
   117   125   123   ar
   118    35    36    1
   119    88    89    1
   120    88    78   am
   121    93    95   am
   122   124   122   ar
   123   102   101    1
   124   102   103    1
   125    37    36    1
   126    37    38    2
   127   123   122   ar
   128    27    26    1
   129   122   121    1
   130    77    78    1
   131    77    80    1
   132    78    79    2
   133   161   155   am
   134    82    84   ar
   135    82    81   ar
   136    31    32    1
   137    84    86   ar
   138   121   118    1
   139   156   155    2
   140    80    81    1
   141    81    83   ar
   142   155   154    1
   143   103   104    2
   144    86    87    1
   145    86    85   ar
   146    32    33    1
   147    83    85   ar
   148   118   117    1
   149   118   119    1
   150   154   157    1
   151   154   153    1
   152   157   158    1
   153   119   120    2
   154    33    34    1
   155   149   148    2
   156   152   150    1
   157   159   158    1
   158   160   158    1
   159   153   148   am
   160   148   147    1
   161   150   147    1
   162   150   151    1
   163   147   146    1
