@<TRIPOS>MOLECULE
tmp/2p54A01.pdb
 234 219 0 0 0
SMALL
GASTEIGER

@<TRIPOS>ATOM
      1  N         15.1660   37.3520   40.8180 N.3    40  ILE40      -0.1245
      2  CA        14.8380   38.7600   40.6460 C.3    40  ILE40       0.1561
      3  C         13.3410   38.8620   40.9190 C.2    40  ILE40       0.2260
      4  O         12.5230   38.4850   40.0790 O.2    40  ILE40      -0.2867
      5  CB        15.1330   39.2270   39.2060 C.3    40  ILE40       0.0252
      6  CG1       16.6260   39.0640   38.9130 C.3    40  ILE40       0.0019
      7  CG2       14.6900   40.6800   39.0210 C.3    40  ILE40       0.0019
      8  CD1       17.0080   39.3080   37.4590 C.3    40  ILE40       0.0001
      9  N         16.6830   43.1570   41.2750 N.3    46  LEU46      -0.1245
     10  CA        16.9780   43.3890   39.8600 C.3    46  LEU46       0.1561
     11  C         18.3330   44.0920   39.7810 C.2    46  LEU46       0.2260
     12  O         19.1980   43.7200   38.9960 O.2    46  LEU46      -0.2867
     13  CB        15.9060   44.2720   39.2070 C.3    46  LEU46       0.0270
     14  CG        16.2510   44.7710   37.7930 C.3    46  LEU46       0.0019
     15  CD1       16.3330   43.5820   36.8430 C.3    46  LEU46       0.0001
     16  CD2       15.2050   45.7700   37.3060 C.3    46  LEU46       0.0001
     17  N         21.1200   41.6310   40.6170 N.3    49  ALA49      -0.1231
     18  CA        21.3380   40.7080   39.5090 C.3    49  ALA49       0.1694
     19  C         22.1080   41.3920   38.3880 C.2    49  ALA49       0.2591
     20  O         23.0150   40.8000   37.8090 O.2    49  ALA49      -0.2718
     21  CB        20.0040   40.1830   38.9890 C.3    49  ALA49       0.0304
     22  N         21.7520   42.6380   38.0810 N.am   50  GLU50      -0.1979
     23  CA        22.4390   43.3780   37.0270 C.3    50  GLU50       0.1602
     24  C         23.9060   43.5750   37.3920 C.2    50  GLU50       0.2287
     25  O         24.7880   43.4220   36.5560 O.2    50  GLU50      -0.2864
     26  CB        21.7830   44.7470   36.8040 C.3    50  GLU50       0.0415
     27  CG        20.3460   44.6860   36.3010 C.3    50  GLU50       0.1163
     28  CD        19.7000   46.0580   36.2210 C.2    50  GLU50       0.3649
     29  OE1       19.8230   46.8270   37.1970 O.co2  50  GLU50      -0.2457
     30  OE2       19.0640   46.3670   35.1930 O.co2  50  GLU50      -0.2457
     31  N         25.4070   39.8610   36.8580 N.3    53  LEU53      -0.1231
     32  CA        25.1850   39.2450   35.5490 C.3    53  LEU53       0.1693
     33  C         25.3460   40.1330   34.3120 C.2    53  LEU53       0.2591
     34  O         25.6790   39.6430   33.2320 O.2    53  LEU53      -0.2718
     35  CB        23.8010   38.5960   35.5310 C.3    53  LEU53       0.0284
     36  CG        23.6790   37.1510   36.0320 C.3    53  LEU53       0.0019
     37  CD1       24.8360   36.7830   36.9500 C.3    53  LEU53       0.0001
     38  CD2       22.3440   36.9850   36.7290 C.3    53  LEU53       0.0001
     39  N         25.0850   41.4260   34.4590 N.am   54  VAL54      -0.1980
     40  CA        25.2170   42.3730   33.3540 C.3    54  VAL54       0.1595
     41  C         25.6880   43.7000   33.9440 C.2    54  VAL54       0.2287
     42  O         25.0070   44.7220   33.8400 O.2    54  VAL54      -0.2864
     43  CB        23.8670   42.5780   32.6080 C.3    54  VAL54       0.0276
     44  CG1       23.4740   41.3040   31.8770 C.3    54  VAL54       0.0022
     45  CG2       22.7730   42.9690   33.5850 C.3    54  VAL54       0.0022
     46  N         15.2510   46.1390   31.5740 N.3    71  ILE71      -0.1231
     47  CA        14.7310   44.7850   31.4000 C.3    71  ILE71       0.1692
     48  C         14.4270   44.5360   29.9250 C.2    71  ILE71       0.2592
     49  O         14.7490   43.4750   29.3960 O.2    71  ILE71      -0.2718
     50  CB        13.4520   44.5700   32.2290 C.3    71  ILE71       0.0266
     51  CG1       13.8110   44.5400   33.7150 C.3    71  ILE71       0.0019
     52  CG2       12.7620   43.2680   31.8170 C.3    71  ILE71       0.0020
     53  CD1       12.6080   44.5830   34.6330 C.3    71  ILE71       0.0001
     54  N         13.8170   45.5180   29.2600 N.am   72  PHE72      -0.1976
     55  CA        13.4940   45.3870   27.8420 C.3    72  PHE72       0.1639
     56  C         14.7790   45.1910   27.0390 C.2    72  PHE72       0.2290
     57  O         14.8130   44.3980   26.1050 O.2    72  PHE72      -0.2864
     58  CB        12.7510   46.6300   27.3440 C.3    72  PHE72       0.0560
     59  CG        12.1210   46.4590   25.9870 C.ar   72  PHE72      -0.0200
     60  CD1       11.0370   45.6150   25.8130 C.ar   72  PHE72      -0.0042
     61  CD2       12.6050   47.1470   24.8910 C.ar   72  PHE72      -0.0042
     62  CE1       10.4450   45.4650   24.5680 C.ar   72  PHE72      -0.0003
     63  CE2       12.0200   47.0030   23.6430 C.ar   72  PHE72      -0.0003
     64  CZ        10.9360   46.1610   23.4810 C.ar   72  PHE72      -0.0000
     65  N         17.5400   43.7860   28.0510 N.3    74  CYS74      -0.1221
     66  CA        17.9650   42.4030   28.2770 C.3    74  CYS74       0.1808
     67  C         17.0950   41.4270   27.4830 C.2    74  CYS74       0.2601
     68  O         17.5830   40.4020   27.0030 O.2    74  CYS74      -0.2717
     69  CB        17.9130   42.0650   29.7670 C.3    74  CYS74       0.0970
     70  SG        19.1660   42.9540   30.7180 S.3    74  CYS74      -0.0800
     71  N         15.8060   41.7340   27.3540 N.am   75  CYS75      -0.1956
     72  CA        14.9070   40.8790   26.5780 C.3    75  CYS75       0.1843
     73  C         15.3830   40.8520   25.1320 C.2    75  CYS75       0.2625
     74  O         15.4080   39.7990   24.4990 O.2    75  CYS75      -0.2714
     75  CB        13.4700   41.4140   26.6140 C.3    75  CYS75       0.0997
     76  SG        12.6460   41.2140   28.1910 S.3    75  CYS75      -0.0797
     77  N         15.7520   42.0210   24.6090 N.am   76  GLN76      -0.1977
     78  CA        16.2370   42.1180   23.2360 C.3    76  GLN76       0.1601
     79  C         17.5220   41.3290   23.0210 C.2    76  GLN76       0.2287
     80  O         17.6620   40.6220   22.0270 O.2    76  GLN76      -0.2864
     81  CB        16.4740   43.5800   22.8540 C.3    76  GLN76       0.0394
     82  CG        15.2030   44.3960   22.7470 C.3    76  GLN76       0.0908
     83  CD        15.3670   45.5740   21.8120 C.2    76  GLN76       0.2608
     84  OE1       15.5250   46.7190   22.2410 O.2    76  GLN76      -0.2717
     85  NE2       15.3420   45.2940   20.5210 N.am   76  GLN76      -0.0878
     86  N         18.4960   38.7950   24.6390 N.3    78  THR78      -0.1203
     87  CA        18.1210   37.3900   24.7230 C.3    78  THR78       0.1994
     88  C         17.4960   36.9250   23.4120 C.2    78  THR78       0.2618
     89  O         17.8590   35.8770   22.8710 O.2    78  THR78      -0.2717
     90  CB        17.1410   37.1590   25.8860 C.3    78  THR78       0.1784
     91  OG1       17.7630   37.5700   27.1130 O.3    78  THR78      -0.2211
     92  CG2       16.7540   35.6850   25.9760 C.3    78  THR78       0.0376
     93  N         16.5610   37.7060   22.8860 N.am   79  SER79      -0.1951
     94  CA        15.9410   37.3520   21.6180 C.3    79  SER79       0.1924
     95  C         16.9630   37.2940   20.4780 C.2    79  SER79       0.2314
     96  O         16.9020   36.4020   19.6380 O.2    79  SER79      -0.2863
     97  CB        14.8420   38.3530   21.2700 C.3    79  SER79       0.2116
     98  OG        13.7380   38.1760   22.1260 O.3    79  SER79      -0.2180
     99  N          9.7690   33.7320   16.0460 N.3   113  TYR113     -0.1241
    100  CA         9.0840   34.0470   17.2950 C.3   113  TYR113      0.1605
    101  C          8.1040   32.9720   17.7300 C.2   113  TYR113      0.2264
    102  O          7.8380   32.8210   18.9260 O.2   113  TYR113     -0.2867
    103  CB         8.4260   35.4300   17.2170 C.3   113  TYR113      0.0534
    104  CG         9.4390   36.5150   17.5170 C.ar  113  TYR113     -0.0201
    105  CD1        9.8780   36.7380   18.8180 C.ar  113  TYR113     -0.0009
    106  CD2       10.0340   37.2390   16.4910 C.ar  113  TYR113     -0.0009
    107  CE1       10.8860   37.6440   19.0870 C.ar  113  TYR113      0.0417
    108  CE2       11.0450   38.1490   16.7490 C.ar  113  TYR113      0.0417
    109  CZ        11.4680   38.3460   18.0480 C.ar  113  TYR113      0.1957
    110  OH        12.4870   39.2400   18.3090 O.3   113  TYR113     -0.2866
    111  N         10.4730   30.7880   19.3850 N.3   116  ILE116     -0.1231
    112  CA        10.9450   31.3930   20.6260 C.3   116  ILE116      0.1692
    113  C          9.9250   31.2460   21.7450 C.2   116  ILE116      0.2592
    114  O         10.2740   30.8640   22.8570 O.2   116  ILE116     -0.2718
    115  CB        11.2770   32.8900   20.4280 C.3   116  ILE116      0.0266
    116  CG1       12.5890   33.0170   19.6540 C.3   116  ILE116      0.0019
    117  CG2       11.3990   33.6010   21.7840 C.3   116  ILE116      0.0020
    118  CD1       12.9100   34.4430   19.2190 C.3   116  ILE116      0.0001
    119  N          8.6620   31.5390   21.4660 N.am  117  PHE117     -0.1976
    120  CA         7.6660   31.4120   22.5230 C.3   117  PHE117      0.1639
    121  C          7.4250   29.9470   22.9080 C.2   117  PHE117      0.2290
    122  O          7.1510   29.6420   24.0680 O.2   117  PHE117     -0.2864
    123  CB         6.3750   32.1280   22.1170 C.3   117  PHE117      0.0560
    124  CG         6.5630   33.6150   21.9010 C.ar  117  PHE117     -0.0200
    125  CD1        7.4650   34.3270   22.6800 C.ar  117  PHE117     -0.0042
    126  CD2        5.8450   34.2920   20.9270 C.ar  117  PHE117     -0.0042
    127  CE1        7.6540   35.6890   22.4930 C.ar  117  PHE117     -0.0003
    128  CE2        6.0260   35.6520   20.7330 C.ar  117  PHE117     -0.0003
    129  CZ         6.9330   36.3510   21.5170 C.ar  117  PHE117     -0.0000
    130  N         10.2700   29.0710   25.1210 N.3   120  LEU120     -0.1245
    131  CA        10.2610   29.7690   26.4110 C.3   120  LEU120      0.1561
    132  C          9.6870   28.8570   27.4850 C.2   120  LEU120      0.2260
    133  O         10.1130   28.8910   28.6460 O.2   120  LEU120     -0.2867
    134  CB         9.4030   31.0380   26.3500 C.3   120  LEU120      0.0270
    135  CG        10.0610   32.2730   25.7360 C.3   120  LEU120      0.0019
    136  CD1        9.0950   33.4560   25.8270 C.3   120  LEU120      0.0001
    137  CD2       11.3670   32.5770   26.4680 C.3   120  LEU120      0.0001
    138  N         10.6190   32.7230   35.0400 N.3   129  MET129     -0.1245
    139  CA        11.4540   32.0820   34.0250 C.3   129  MET129      0.1570
    140  C         12.9480   32.2980   34.2380 C.2   129  MET129      0.2261
    141  O         13.3730   33.2990   34.8100 O.2   129  MET129     -0.2867
    142  CB        11.0750   32.5800   32.6200 C.3   129  MET129      0.0387
    143  CG        11.4260   34.0290   32.3340 C.3   129  MET129      0.0595
    144  SD        11.1630   34.4930   30.5810 S.3   129  MET129     -0.1393
    145  CE        12.6650   34.0060   29.8410 C.3   129  MET129      0.0692
    146  N         16.7060   33.1870   33.2160 N.3   131  VAL131     -0.1231
    147  CA        17.2880   34.1720   32.3140 C.3   131  VAL131      0.1692
    148  C         18.8000   34.1820   32.4910 C.2   131  VAL131      0.2591
    149  O         19.3330   33.5090   33.3700 O.2   131  VAL131     -0.2718
    150  CB        16.7460   35.5890   32.5970 C.3   131  VAL131      0.0266
    151  CG1       15.2360   35.6280   32.3530 C.3   131  VAL131      0.0020
    152  CG2       17.0640   35.9900   34.0330 C.3   131  VAL131      0.0020
    153  N         19.4810   34.9470   31.6480 N.am  132  ALA132     -0.1980
    154  CA        20.9310   35.0710   31.7060 C.3   132  ALA132      0.1597
    155  C         21.6270   33.7100   31.7090 C.2   132  ALA132      0.2287
    156  O         22.4080   33.4000   32.6090 O.2   132  ALA132     -0.2864
    157  CB        21.3350   35.8740   32.9360 C.3   132  ALA132      0.0319
    158  N         13.6520   35.4020   36.9060 N.3   138  ILE138     -0.1245
    159  CA        12.8250   36.5810   37.1210 C.3   138  ILE138      0.1561
    160  C         11.3800   36.1340   37.3610 C.2   138  ILE138      0.2260
    161  O         10.8340   35.3170   36.6180 O.2   138  ILE138     -0.2867
    162  CB        12.9470   37.5510   35.9170 C.3   138  ILE138      0.0252
    163  CG1       12.2490   38.8750   36.2340 C.3   138  ILE138      0.0019
    164  CG2       12.3630   36.9100   34.6650 C.3   138  ILE138      0.0019
    165  CD1       12.6560   40.0010   35.3020 C.3   138  ILE138      0.0001
    166  N          7.3660   40.9510   36.8740 N.3   143  LEU143     -0.1245
    167  CA         7.1160   41.4220   35.5140 C.3   143  LEU143      0.1561
    168  C          5.7370   42.0780   35.4140 C.2   143  LEU143      0.2260
    169  O          5.5510   43.0530   34.6820 O.2   143  LEU143     -0.2867
    170  CB         7.2220   40.2510   34.5300 C.3   143  LEU143      0.0270
    171  CG         8.6560   39.7350   34.3450 C.3   143  LEU143      0.0019
    172  CD1        8.6450   38.3300   33.7590 C.3   143  LEU143      0.0001
    173  CD2        9.4270   40.7050   33.4370 C.3   143  LEU143      0.0001
    174  N          3.8300   42.4230   28.2120 N.3   153  ILE153     -0.1231
    175  CA         4.5820   41.5620   27.3100 C.3   153  ILE153      0.1692
    176  C          4.5760   40.0780   27.6740 C.2   153  ILE153      0.2591
    177  O          4.2020   39.2220   26.8650 O.2   153  ILE153     -0.2718
    178  CB         6.0650   42.0030   27.2450 C.3   153  ILE153      0.0266
    179  CG1        6.1660   43.4260   26.7020 C.3   153  ILE153      0.0019
    180  CG2        6.8670   41.0420   26.3670 C.3   153  ILE153      0.0020
    181  CD1        7.5630   44.0040   26.7910 C.3   153  ILE153      0.0001
    182  N          4.9780   39.7770   28.9000 N.am  154  MET154     -0.1979
    183  CA         5.1130   38.3900   29.3220 C.3   154  MET154      0.1605
    184  C          3.9170   37.5340   29.7310 C.2   154  MET154      0.2287
    185  O          3.9530   36.3220   29.5280 O.2   154  MET154     -0.2864
    186  CB         6.1830   38.3160   30.4100 C.3   154  MET154      0.0413
    187  CG         7.5620   38.7180   29.9140 C.3   154  MET154      0.0598
    188  SD         8.1020   37.7120   28.4980 S.3   154  MET154     -0.1393
    189  CE         8.0460   36.0850   29.2380 C.3   154  MET154      0.0692
    190  N          1.8360   39.8500   19.6680 N.3   239  HIS239     -0.1241
    191  CA         3.1000   40.3510   20.2070 C.3   239  HIS239      0.1621
    192  C          3.6610   41.4470   19.2920 C.2   239  HIS239      0.2264
    193  O          4.1100   42.4910   19.7670 O.2   239  HIS239     -0.2867
    194  CB         4.1170   39.2050   20.3340 C.3   239  HIS239      0.0745
    195  CG         5.4650   39.6340   20.8350 C.ar  239  HIS239      0.0817
    196  ND1        5.7080   39.9470   22.1540 N.ar  239  HIS239     -0.2268
    197  CD2        6.6430   39.8020   20.1880 C.ar  239  HIS239      0.1154
    198  CE1        6.9760   40.2890   22.3000 C.ar  239  HIS239      0.1986
    199  NE2        7.5640   40.2100   21.1210 N.ar  239  HIS239     -0.2212
    200  N          4.7950   45.2360   20.0920 N.3   243  VAL243     -0.1245
    201  CA         6.1420   45.7120   19.7830 C.3   243  VAL243      0.1561
    202  C          6.0780   47.0230   18.9930 C.2   243  VAL243      0.2260
    203  O          6.8360   47.9530   19.2690 O.2   243  VAL243     -0.2867
    204  CB         6.9460   44.6590   18.9780 C.3   243  VAL243      0.0252
    205  CG1        8.2710   45.2510   18.5190 C.3   243  VAL243      0.0019
    206  CG2        7.2160   43.4400   19.8520 C.3   243  VAL243      0.0019
    207  N         14.6320   49.1520   18.7810 N.3   255  LEU255     -0.1245
    208  CA        14.9690   47.7600   18.5330 C.3   255  LEU255      0.1561
    209  C         16.3610   47.5350   17.9540 C.2   255  LEU255      0.2260
    210  O         16.8840   48.3550   17.1990 O.2   255  LEU255     -0.2867
    211  CB        13.9360   47.1240   17.5950 C.3   255  LEU255      0.0270
    212  CG        12.4750   47.0900   18.0540 C.3   255  LEU255      0.0019
    213  CD1       11.6340   46.4020   16.9910 C.3   255  LEU255      0.0001
    214  CD2       12.3600   46.3530   19.3770 C.3   255  LEU255      0.0001
    215  N         16.3170   42.4850   15.1770 N.3   259  LEU259     -0.1245
    216  CA        14.9080   42.4040   15.5330 C.3   259  LEU259      0.1561
    217  C         14.0930   43.3640   14.6630 C.2   259  LEU259      0.2260
    218  O         12.9710   43.0530   14.2590 O.2   259  LEU259     -0.2867
    219  CB        14.7190   42.7260   17.0160 C.3   259  LEU259      0.0270
    220  CG        15.5760   41.8690   17.9560 C.3   259  LEU259      0.0019
    221  CD1       15.1100   42.0840   19.3850 C.3   259  LEU259      0.0001
    222  CD2       15.4670   40.3930   17.5750 C.3   259  LEU259      0.0001
    223  N         10.7210   42.2590   12.4110 N.3   263  TYR263     -0.1241
    224  CA         9.3950   42.8630   12.5330 C.3   263  TYR263      0.1605
    225  C          8.9810   43.7730   11.3790 C.2   263  TYR263      0.2264
    226  O          7.7920   44.0130   11.1820 O.2   263  TYR263     -0.2867
    227  CB         9.2870   43.6240   13.8540 C.3   263  TYR263      0.0534
    228  CG         9.1540   42.7050   15.0480 C.ar  263  TYR263     -0.0201
    229  CD1        8.0180   41.9270   15.2200 C.ar  263  TYR263     -0.0009
    230  CD2       10.1790   42.5820   15.9740 C.ar  263  TYR263     -0.0009
    231  CE1        7.9060   41.0440   16.2850 C.ar  263  TYR263      0.0417
    232  CE2       10.0770   41.7020   17.0420 C.ar  263  TYR263      0.0417
    233  CZ         8.9410   40.9360   17.1880 C.ar  263  TYR263      0.1957
    234  OH         8.8490   40.0380   18.2270 O.3   263  TYR263     -0.2866
@<TRIPOS>BOND
     1   226   225    2
     2   225   224    1
     3   223   224    1
     4   224   227    1
     5   227   228    1
     6   218   217    2
     7   217   216    1
     8   228   229   ar
     9   228   230   ar
    10   215   216    1
    11   229   231   ar
    12   216   219    1
    13   230   232   ar
    14    99   100    1
    15   231   233   ar
    16   106   108   ar
    17   106   104   ar
    18   108   109   ar
    19   213   212    1
    20   219   220    1
    21   232   233   ar
    22   233   234    1
    23   210   209    2
    24   103   100    1
    25   103   104    1
    26   100   101    1
    27   104   105   ar
    28   222   220    1
    29   211   212    1
    30   211   208    1
    31   101   102    2
    32   209   208    1
    33   220   221    1
    34   109   110    1
    35   109   107   ar
    36   212   214    1
    37   205   204    1
    38   208   207    1
    39   105   107   ar
    40   204   201    1
    41   204   206    1
    42   202   203    2
    43   202   201    1
    44   118   116    1
    45   192   193    2
    46   192   191    1
    47   111   112    1
    48    96    95    2
    49   116   115    1
    50   190   191    1
    51   201   200    1
    52   197   195   ar
    53   197   199   ar
    54   191   194    1
    55   194   195    1
    56   115   112    1
    57   115   117    1
    58    95    94    1
    59    85    83   am
    60   112   113    1
    61   128   126   ar
    62   128   129   ar
    63   195   196   ar
    64   126   124   ar
    65   199   198   ar
    66    97    94    1
    67    97    98    1
    68   119   113   am
    69   119   120    1
    70   129   127   ar
    71    94    93    1
    72   113   114    2
    73    83    84    2
    74    83    82    1
    75   124   123    1
    76   124   125   ar
    77    80    79    2
    78   123   120    1
    79   196   198   ar
    80   127   125   ar
    81   120   121    1
    82    82    81    1
    83    81    78    1
    84    89    88    2
    85    93    88   am
    86   121   122    2
    87    79    78    1
    88    78    77    1
    89    88    87    1
    90    64    63   ar
    91    64    62   ar
    92    63    61   ar
    93    74    73    2
    94    62    60   ar
    95    77    73   am
    96    86    87    1
    97    87    90    1
    98    61    59   ar
    99   130   131    1
   100    73    72    1
   101   135   136    1
   102   135   134    1
   103   135   137    1
   104    60    59   ar
   105    90    92    1
   106    90    91    1
   107    59    58    1
   108    57    56    2
   109   134   131    1
   110   180   178    1
   111   131   132    1
   112    72    75    1
   113    72    71    1
   114    75    76    1
   115   179   181    1
   116   179   178    1
   117   177   176    2
   118    68    67    2
   119    56    55    1
   120   178   175    1
   121   175   176    1
   122   175   174    1
   123    58    55    1
   124    71    67   am
   125    67    66    1
   126   132   133    2
   127   176   182   am
   128    55    54    1
   129    65    66    1
   130    66    69    1
   131   188   189    1
   132   188   187    1
   133   182   183    1
   134    54    48   am
   135   183   184    1
   136   183   186    1
   137    49    48    2
   138   185   184    2
   139    69    70    1
   140   145   144    1
   141   187   186    1
   142    48    47    1
   143   144   143    1
   144    47    46    1
   145    47    50    1
   146   153   154    1
   147   153   148   am
   148   154   155    1
   149   154   157    1
   150   155   156    2
   151    52    50    1
   152    44    43    1
   153    50    51    1
   154   147   148    1
   155   147   150    1
   156   147   146    1
   157   143   142    1
   158   151   150    1
   159   148   149    2
   160   150   152    1
   161    43    40    1
   162    43    45    1
   163   142   139    1
   164    34    33    2
   165    40    41    1
   166    40    39    1
   167   173   171    1
   168    51    53    1
   169   172   171    1
   170    42    41    2
   171   139   140    1
   172   139   138    1
   173   140   141    2
   174    33    39   am
   175    33    32    1
   176   171   170    1
   177   170   167    1
   178   164   162    1
   179   169   168    2
   180    30    28   ar
   181   165   163    1
   182   168   167    1
   183   167   166    1
   184    35    32    1
   185    35    36    1
   186    32    31    1
   187   162   163    1
   188   162   159    1
   189    36    38    1
   190    36    37    1
   191    28    27    1
   192    28    29   ar
   193    27    26    1
   194    25    24    2
   195   161   160    2
   196    26    23    1
   197    15    14    1
   198   158   159    1
   199    23    24    1
   200    23    22    1
   201   159   160    1
   202    16    14    1
   203     8     6    1
   204    14    13    1
   205    20    19    2
   206    22    19   am
   207    19    18    1
   208     6     5    1
   209    21    18    1
   210    12    11    2
   211     7     5    1
   212     5     2    1
   213    13    10    1
   214    18    17    1
   215    11    10    1
   216    10     9    1
   217     4     3    2
   218     2     1    1
   219     2     3    1
