@<TRIPOS>MOLECULE
tmp/2p54A00.pdb
 159 151 0 0 0
SMALL
GASTEIGER

@<TRIPOS>ATOM
      1  N         17.4660   34.0360   18.2160 N.3    83  VAL83      -0.1231
      2  CA        17.2600   34.0830   16.7690 C.3    83  VAL83       0.1692
      3  C         18.5300   33.5610   16.0880 C.2    83  VAL83       0.2592
      4  O         18.4720   32.8430   15.0870 O.2    83  VAL83      -0.2718
      5  CB        16.9910   35.5170   16.2790 C.3    83  VAL83       0.0266
      6  CG1       17.1260   35.5880   14.7610 C.3    83  VAL83       0.0020
      7  CG2       15.5950   35.9510   16.7010 C.3    83  VAL83       0.0020
      8  N         19.6790   33.9370   16.6320 N.am   84  THR84      -0.1953
      9  CA        20.9480   33.4910   16.0790 C.3    84  THR84       0.1897
     10  C         21.0570   31.9650   16.1720 C.2    84  THR84       0.2313
     11  O         21.4710   31.3150   15.2170 O.2    84  THR84      -0.2863
     12  CB        22.1220   34.1710   16.8060 C.3    84  THR84       0.1794
     13  OG1       22.0040   35.5950   16.6530 O.3    84  THR84      -0.2208
     14  CG2       23.4540   33.7140   16.2190 C.3    84  THR84       0.0378
     15  N         18.6980   30.2280   13.6620 N.3    87  THR87      -0.1203
     16  CA        19.1850   30.3230   12.2880 C.3    87  THR87       0.1994
     17  C         20.1770   29.1990   12.0010 C.2    87  THR87       0.2617
     18  O         20.1740   28.6240   10.9070 O.2    87  THR87      -0.2717
     19  CB        19.8360   31.6930   12.0390 C.3    87  THR87       0.1784
     20  OG1       18.8370   32.7100   12.1770 O.3    87  THR87      -0.2211
     21  CG2       20.4350   31.7670   10.6300 C.3    87  THR87       0.0376
     22  N         21.0200   28.8810   12.9820 N.am   88  GLU88      -0.1979
     23  CA        21.9850   27.7940   12.8200 C.3    88  GLU88       0.1602
     24  C         21.2490   26.4540   12.8220 C.2    88  GLU88       0.2287
     25  O         21.5900   25.5440   12.0630 O.2    88  GLU88      -0.2864
     26  CB        23.0200   27.8350   13.9440 C.3    88  GLU88       0.0415
     27  CG        23.8930   29.0710   13.9040 C.3    88  GLU88       0.1163
     28  CD        24.6590   29.1900   12.6020 C.2    88  GLU88       0.3649
     29  OE1       25.5790   28.3760   12.3760 O.co2  88  GLU88      -0.2457
     30  OE2       24.3330   30.0900   11.8000 O.co2  88  GLU88      -0.2457
     31  N         19.5900   25.9040    9.4640 N.3    91  LYS91      -0.1245
     32  CA        20.5640   25.5040    8.4570 C.3    91  LYS91       0.1561
     33  C         20.9410   24.0250    8.5680 C.2    91  LYS91       0.2260
     34  O         21.4490   23.4360    7.6130 O.2    91  LYS91      -0.2867
     35  CB        21.8090   26.3910    8.5570 C.3    91  LYS91       0.0271
     36  CG        21.4990   27.8580    8.3080 C.3    91  LYS91       0.0035
     37  CD        22.7390   28.6870    8.0130 C.3    91  LYS91       0.0206
     38  CE        23.7050   28.7200    9.1770 C.3    91  LYS91       0.1093
     39  NZ        24.8120   29.6970    8.9320 N.3    91  LYS91      -0.1314
     40  N         16.6450   22.6220    4.1970 N.3    96  PHE96      -0.1241
     41  CA        16.5050   24.0610    4.3960 C.3    96  PHE96       0.1605
     42  C         17.5490   24.8670    3.6290 C.2    96  PHE96       0.2264
     43  O         17.2180   25.8480    2.9610 O.2    96  PHE96      -0.2867
     44  CB        16.5750   24.4010    5.8930 C.3    96  PHE96       0.0534
     45  CG        16.2710   25.8440    6.2060 C.ar   96  PHE96      -0.0203
     46  CD1       17.2690   26.8040    6.1670 C.ar   96  PHE96      -0.0042
     47  CD2       14.9820   26.2400    6.5220 C.ar   96  PHE96      -0.0042
     48  CE1       16.9870   28.1370    6.4380 C.ar   96  PHE96      -0.0003
     49  CE2       14.6920   27.5740    6.7950 C.ar   96  PHE96      -0.0003
     50  CZ        15.6960   28.5190    6.7510 C.ar   96  PHE96      -0.0000
     51  N         17.6120   31.6150   -1.0150 N.3   101  LEU101     -0.1231
     52  CA        17.9260   32.4610    0.1330 C.3   101  LEU101      0.1693
     53  C         16.7380   33.2970    0.6240 C.2   101  LEU101      0.2592
     54  O         16.5590   33.4770    1.8320 O.2   101  LEU101     -0.2718
     55  CB        19.1030   33.3840   -0.2050 C.3   101  LEU101      0.0284
     56  CG        19.7270   34.1470    0.9670 C.3   101  LEU101      0.0019
     57  CD1       20.3510   33.1530    1.9440 C.3   101  LEU101      0.0001
     58  CD2       20.7860   35.1150    0.4540 C.3   101  LEU101      0.0001
     59  N         15.9380   33.8190   -0.3000 N.am  102  ASN102     -0.1974
     60  CA        14.7710   34.6180    0.0770 C.3   102  ASN102      0.1688
     61  C         13.7790   33.7790    0.8790 C.2   102  ASN102      0.2292
     62  O         13.1980   34.2570    1.8530 O.2   102  ASN102     -0.2864
     63  CB        14.0730   35.1810   -1.1640 C.3   102  ASN102      0.1181
     64  CG        14.9170   36.2080   -1.8950 C.2   102  ASN102      0.2629
     65  OD1       15.1880   37.2930   -1.3790 O.2   102  ASN102     -0.2716
     66  ND2       15.3410   35.8650   -3.1050 N.am  102  ASN102     -0.0877
     67  N         14.5500   31.1560    2.6500 N.3   104  GLN104     -0.1231
     68  CA        15.1700   30.8560    3.9400 C.3   104  GLN104      0.1698
     69  C         14.9120   32.0300    4.8820 C.2   104  GLN104      0.2592
     70  O         14.5640   31.8370    6.0470 O.2   104  GLN104     -0.2718
     71  CB        16.6770   30.6370    3.7890 C.3   104  GLN104      0.0381
     72  CG        17.0440   29.3480    3.0760 C.3   104  GLN104      0.0905
     73  CD        18.5400   29.1280    3.0120 C.2   104  GLN104      0.2608
     74  OE1       19.2280   29.1750    4.0320 O.2   104  GLN104     -0.2717
     75  NE2       19.0540   28.8830    1.8090 N.am  104  GLN104     -0.0878
     76  N         15.0860   33.2420    4.3610 N.am  105  VAL105     -0.1980
     77  CA        14.8630   34.4670    5.1240 C.3   105  VAL105      0.1595
     78  C         13.4060   34.5660    5.5710 C.2   105  VAL105      0.2287
     79  O         13.1190   34.8650    6.7310 O.2   105  VAL105     -0.2864
     80  CB        15.2240   35.7110    4.2760 C.3   105  VAL105      0.0276
     81  CG1       14.7130   36.9770    4.9410 C.3   105  VAL105      0.0022
     82  CG2       16.7320   35.7890    4.1050 C.3   105  VAL105      0.0022
     83  N         12.4320   32.0360    8.4050 N.3   108  LEU108     -0.1231
     84  CA        12.9440   32.4630    9.7020 C.3   108  LEU108      0.1693
     85  C         12.2090   33.7120   10.1870 C.2   108  LEU108      0.2591
     86  O         11.8490   33.8190   11.3570 O.2   108  LEU108     -0.2718
     87  CB        14.4460   32.7410    9.6080 C.3   108  LEU108      0.0284
     88  CG        15.2910   31.4670    9.5640 C.3   108  LEU108      0.0019
     89  CD1       16.7310   31.8170    9.2290 C.3   108  LEU108      0.0001
     90  CD2       15.2060   30.7550   10.9090 C.3   108  LEU108      0.0001
     91  N         11.9890   34.6590    9.2820 N.am  109  LYS109     -0.1980
     92  CA        11.2970   35.8970    9.6220 C.3   109  LYS109      0.1596
     93  C          9.9590   35.6600   10.3270 C.2   109  LYS109      0.2287
     94  O          9.6840   36.2600   11.3660 O.2   109  LYS109     -0.2864
     95  CB        11.0630   36.7210    8.3540 C.3   109  LYS109      0.0298
     96  CG        10.3350   38.0330    8.5850 C.3   109  LYS109      0.0038
     97  CD         9.9680   38.6730    7.2460 C.3   109  LYS109      0.0206
     98  CE         9.3650   40.0520    7.4270 C.3   109  LYS109      0.1093
     99  NZ        10.3530   41.0020    8.0220 N.3   109  LYS109     -0.1314
    100  N         10.6800   32.4040   13.5650 N.3   112  VAL112     -0.1245
    101  CA        11.4740   32.5000   14.7860 C.3   112  VAL112      0.1561
    102  C         10.7420   32.8290   16.0740 C.2   112  VAL112      0.2260
    103  O         11.0550   32.2520   17.1060 O.2   112  VAL112     -0.2867
    104  CB        12.6860   33.4710   14.6460 C.3   112  VAL112      0.0252
    105  CG1       13.6860   32.8870   13.6630 C.3   112  VAL112      0.0019
    106  CG2       12.2380   34.8540   14.2150 C.3   112  VAL112      0.0019
    107  N         16.9510   46.4070   18.3340 N.3   256  HIS256     -0.1227
    108  CA        18.2550   45.9780   17.8540 C.3   256  HIS256      0.1737
    109  C         18.0210   45.7540   16.3620 C.2   256  HIS256      0.2438
    110  O         16.9400   45.3300   15.9630 O.2   256  HIS256     -0.2733
    111  CB        18.6310   44.6540   18.5350 C.3   256  HIS256      0.0758
    112  CG        19.8840   44.0210   18.0090 C.ar  256  HIS256      0.0818
    113  ND1       21.0680   44.0100   18.7160 N.ar  256  HIS256     -0.2268
    114  CD2       20.1300   43.3560   16.8560 C.ar  256  HIS256      0.1154
    115  CE1       21.9880   43.3650   18.0210 C.ar  256  HIS256      0.1986
    116  NE2       21.4450   42.9590   16.8870 N.ar  256  HIS256     -0.2212
    117  N         19.0260   46.0450   15.5230 N.am  257  PRO257     -0.2718
    118  CA        18.9590   45.8890   14.0660 C.3   257  PRO257      0.1535
    119  C         18.3440   44.5840   13.5570 C.2   257  PRO257      0.2598
    120  O         17.5190   44.6010   12.6450 O.2   257  PRO257     -0.2715
    121  CB        20.4170   46.0400   13.6460 C.3   257  PRO257      0.0310
    122  CG        20.9190   47.0540   14.6140 C.3   257  PRO257      0.0237
    123  CD        20.3400   46.5750   15.9300 C.3   257  PRO257      0.0939
    124  N         18.7550   43.4550   14.1310 N.am  258  LEU258     -0.1978
    125  CA        18.2330   42.1570   13.7120 C.3   258  LEU258      0.1596
    126  C         16.7410   42.0220   14.0070 C.2   258  LEU258      0.2287
    127  O         15.9850   41.4960   13.1930 O.2   258  LEU258     -0.2864
    128  CB        18.9990   41.0240   14.4040 C.3   258  LEU258      0.0297
    129  CG        18.5180   39.5980   14.1120 C.3   258  LEU258      0.0022
    130  CD1       18.5560   39.3300   12.6110 C.3   258  LEU258      0.0001
    131  CD2       19.3950   38.6020   14.8570 C.3   258  LEU258      0.0001
    132  N         14.7260   44.1680   11.6280 N.3   261  GLU261     -0.1231
    133  CA        14.6120   43.4690   10.3440 C.3   261  GLU261      0.1699
    134  C         13.4460   42.4930   10.3490 C.2   261  GLU261      0.2592
    135  O         12.6320   42.4560    9.4230 O.2   261  GLU261     -0.2718
    136  CB        15.8740   42.6550   10.0670 C.3   261  GLU261      0.0402
    137  CG        16.9440   43.3510    9.2900 C.3   261  GLU261      0.1161
    138  CD        18.1740   42.4840    9.1520 C.2   261  GLU261      0.3649
    139  OE1       18.0220   41.2580    8.9290 O.co2 261  GLU261     -0.2457
    140  OE2       19.2890   43.0300    9.2610 O.co2 261  GLU261     -0.2457
    141  N         13.3920   41.6750   11.3940 N.am  262  ILE262     -0.1980
    142  CA        12.3530   40.6740   11.5220 C.3   262  ILE262      0.1595
    143  C         10.9420   41.2550   11.5680 C.2   262  ILE262      0.2287
    144  O         10.0680   40.8020   10.8380 O.2   262  ILE262     -0.2864
    145  CB        12.5980   39.7940   12.7720 C.3   262  ILE262      0.0276
    146  CG1       13.9130   39.0220   12.6040 C.3   262  ILE262      0.0022
    147  CG2       11.4360   38.8300   12.9720 C.3   262  ILE262      0.0022
    148  CD1       14.3400   38.2410   13.8410 C.3   262  ILE262      0.0001
    149  N          9.9510   44.2740   10.6190 N.3   264  ARG264     -0.1245
    150  CA         9.6520   45.1510    9.4910 C.3   264  ARG264      0.1563
    151  C          8.7330   44.4650    8.4810 C.2   264  ARG264      0.2260
    152  O          9.1150   43.4840    7.8480 O.2   264  ARG264     -0.2867
    153  CB        10.9490   45.5860    8.8010 C.3   264  ARG264      0.0307
    154  CG        10.7360   46.2950    7.4710 C.3   264  ARG264      0.0489
    155  CD        12.0390   46.8590    6.9290 C.3   264  ARG264      0.2205
    156  NE        11.9070   47.3120    5.5460 N.pl3 264  ARG264     -0.0865
    157  CZ        12.8400   47.9950    4.8890 C.cat 264  ARG264      0.5346
    158  NH1       13.9810   48.3150    5.4870 N.pl3 264  ARG264      0.1354
    159  NH2       12.6360   48.3530    3.6280 N.pl3 264  ARG264      0.1354
@<TRIPOS>BOND
     1    66    64   am
     2    64    65    2
     3    64    63    1
     4    63    60    1
     5    51    52    1
     6    59    60    1
     7    59    53   am
     8    55    52    1
     9    55    56    1
    10    60    61    1
    11    52    53    1
    12    58    56    1
    13    53    54    2
    14    61    62    2
    15    56    57    1
    16    75    73   am
    17    67    68    1
    18    43    42    2
    19    73    72    1
    20    73    74    2
    21    72    71    1
    22   159   157    1
    23    42    41    1
    24    71    68    1
    25    68    69    1
    26    82    80    1
    27    40    41    1
    28    80    81    1
    29    80    77    1
    30    76    69   am
    31    76    77    1
    32    41    44    1
    33    69    70    2
    34   157   158    1
    35   157   156    2
    36    77    78    1
    37   156   155    1
    38    78    79    2
    39    44    45    1
    40    46    45   ar
    41    46    48   ar
    42    45    47   ar
    43    48    50   ar
    44    47    49   ar
    45    50    49   ar
    46   155   154    1
    47    97    98    1
    48    97    96    1
    49    98    99    1
    50   154   153    1
    51    34    33    2
    52   152   151    2
    53    37    36    1
    54    37    38    1
    55    36    35    1
    56    95    96    1
    57    95    92    1
    58    83    84    1
    59    32    35    1
    60    32    33    1
    61    32    31    1
    62   151   150    1
    63   153   150    1
    64   139   138   ar
    65    39    38    1
    66   138   140   ar
    67   138   137    1
    68    89    88    1
    69    91    92    1
    70    91    85   am
    71   137   136    1
    72   135   134    2
    73   150   149    1
    74    88    87    1
    75    88    90    1
    76    87    84    1
    77    92    93    1
    78    84    85    1
    79   136   133    1
    80    85    86    2
    81    93    94    2
    82   133   134    1
    83   133   132    1
    84   134   141   am
    85    21    19    1
    86   144   143    2
    87    18    17    2
    88   141   142    1
    89   142   143    1
    90   142   145    1
    91    30    28   ar
    92    17    16    1
    93    17    22   am
    94    19    20    1
    95    19    16    1
    96    25    24    2
    97    16    15    1
    98    29    28   ar
    99    28    27    1
   100   146   145    1
   101   146   148    1
   102   130   129    1
   103   120   119    2
   104   145   147    1
   105    23    24    1
   106    23    22    1
   107    23    26    1
   108   127   126    2
   109   119   118    1
   110   119   124   am
   111   100   101    1
   112   121   118    1
   113   121   122    1
   114   105   104    1
   115   125   126    1
   116   125   124    1
   117   125   128    1
   118    27    26    1
   119   118   117    1
   120   129   128    1
   121   129   131    1
   122   106   104    1
   123   122   123    1
   124   104   101    1
   125     6     5    1
   126   101   102    1
   127     4     3    2
   128    11    10    2
   129   117   123    1
   130   117   109   am
   131   110   109    2
   132   102   103    2
   133     9    10    1
   134     9     8    1
   135     9    12    1
   136     3     8   am
   137     3     2    1
   138    14    12    1
   139     5     7    1
   140     5     2    1
   141   109   108    1
   142    13    12    1
   143     2     1    1
   144   114   116   ar
   145   114   112   ar
   146   116   115   ar
   147   108   107    1
   148   108   111    1
   149   112   111    1
   150   112   113   ar
   151   115   113   ar
