@<TRIPOS>MOLECULE
tmp/2p55A00.pdb
 196 183 0 0 0
SMALL
GASTEIGER

@<TRIPOS>ATOM
      1  N         55.5500   37.7960   -7.0610 N.3    17  GLY17      -0.1210
      2  CA        56.0020   37.7440   -5.6790 C.3    17  GLY17       0.1956
      3  C         56.4580   36.3540   -5.2870 C.2    17  GLY17       0.2612
      4  O         55.8220   35.3560   -5.6570 O.2    17  GLY17      -0.2717
      5  N         57.5660   36.2970   -4.5500 N.am   18  ASN18      -0.1960
      6  CA        58.0700   35.0680   -3.9130 C.3    18  ASN18       0.1819
      7  C         57.9130   33.7440   -4.6750 C.2    18  ASN18       0.2622
      8  O         57.3990   32.7660   -4.1360 O.2    18  ASN18      -0.2715
      9  CB        57.5100   34.9370   -2.4870 C.3    18  ASN18       0.1195
     10  CG        58.2940   35.7590   -1.4720 C.2    18  ASN18       0.2630
     11  OD1       58.9940   35.2030   -0.6170 O.2    18  ASN18      -0.2716
     12  ND2       58.1900   37.0860   -1.5640 N.am   18  ASN18      -0.0877
     13  N         58.3630   33.7130   -5.9240 N.am   19  GLY19      -0.1940
     14  CA        58.4190   32.4640   -6.6720 C.3    19  GLY19       0.2014
     15  C         57.6590   32.4610   -7.9820 C.2    19  GLY19       0.2639
     16  O         58.0800   31.8120   -8.9520 O.2    19  GLY19      -0.2714
     17  N         56.5410   33.1880   -8.0110 N.am   20  GLY20      -0.1954
     18  CA        55.6340   33.1630   -9.1490 C.3    20  GLY20       0.1869
     19  C         55.4580   34.4860   -9.8510 C.2    20  GLY20       0.2309
     20  O         55.4530   35.5430   -9.2230 O.2    20  GLY20      -0.2863
     21  N         50.2930   31.2460  -14.1370 N.3    37  LYS37      -0.1245
     22  CA        51.3140   31.4120  -13.0990 C.3    37  LYS37       0.1561
     23  C         52.5280   30.5730  -13.4330 C.2    37  LYS37       0.2260
     24  O         52.4180   29.3650  -13.6540 O.2    37  LYS37      -0.2867
     25  CB        50.7710   31.0490  -11.7100 C.3    37  LYS37       0.0271
     26  CG        51.8390   30.8450  -10.6280 C.3    37  LYS37       0.0035
     27  CD        51.2370   30.7300   -9.2340 C.3    37  LYS37       0.0206
     28  CE        51.0750   32.1020   -8.5760 C.3    37  LYS37       0.1093
     29  NZ        50.7840   32.0230   -7.1040 N.3    37  LYS37      -0.1314
     30  N         56.2190   29.3170  -12.1120 N.3    39  ILE39      -0.1245
     31  CA        57.1100   29.1500  -10.9660 C.3    39  ILE39       0.1561
     32  C         58.4450   28.5790  -11.4250 C.2    39  ILE39       0.2260
     33  O         58.5400   27.4090  -11.8050 O.2    39  ILE39      -0.2867
     34  CB        56.5010   28.2670   -9.8350 C.3    39  ILE39       0.0252
     35  CG1       55.0590   28.6850   -9.5170 C.3    39  ILE39       0.0019
     36  CG2       57.3400   28.3840   -8.5780 C.3    39  ILE39       0.0019
     37  CD1       54.2440   27.6320   -8.7680 C.3    39  ILE39       0.0001
     38  N         49.2300   18.1880   -9.4200 N.3    55  LEU55      -0.1245
     39  CA        48.4040   19.3590   -9.7210 C.3    55  LEU55       0.1561
     40  C         47.1840   19.0060  -10.5580 C.2    55  LEU55       0.2260
     41  O         46.3180   19.8480  -10.7720 O.2    55  LEU55      -0.2867
     42  CB        49.2220   20.4550  -10.4140 C.3    55  LEU55       0.0270
     43  CG        50.3100   21.1940   -9.6250 C.3    55  LEU55       0.0019
     44  CD1       51.1700   22.0220  -10.5670 C.3    55  LEU55       0.0001
     45  CD2       49.7360   22.0610   -8.5190 C.3    55  LEU55       0.0001
     46  N         43.5290   19.4450   -9.2230 N.3    58  LEU58      -0.1245
     47  CA        42.9030   20.7480   -9.4230 C.3    58  LEU58       0.1561
     48  C         41.7940   20.7110  -10.4890 C.2    58  LEU58       0.2260
     49  O         40.9030   21.5600  -10.4900 O.2    58  LEU58      -0.2867
     50  CB        43.9620   21.7990   -9.7720 C.3    58  LEU58       0.0270
     51  CG        44.9640   22.2000   -8.6840 C.3    58  LEU58       0.0019
     52  CD1       46.1370   22.9610   -9.2740 C.3    58  LEU58       0.0001
     53  CD2       44.2940   23.0290   -7.6150 C.3    58  LEU58       0.0001
     54  N         38.7580   20.0950   -8.5900 N.3    61  CYS61      -0.1235
     55  CA        38.3810   21.1890   -7.6750 C.3    61  CYS61       0.1677
     56  C         37.3470   22.1320   -8.2950 C.2    61  CYS61       0.2270
     57  O         37.6910   23.1880   -8.8390 O.2    61  CYS61      -0.2867
     58  CB        39.6070   22.0040   -7.2490 C.3    61  CYS61       0.0956
     59  SG        40.6200   21.2780   -5.9510 S.3    61  CYS61      -0.0801
     60  N         36.1790   28.4720   -5.2710 N.3    66  ILE66      -0.1231
     61  CA        37.5390   28.1490   -5.6650 C.3    66  ILE66       0.1692
     62  C         37.7860   28.5720   -7.1130 C.2    66  ILE66       0.2592
     63  O         36.9640   28.2970   -7.9830 O.2    66  ILE66      -0.2718
     64  CB        37.8340   26.6380   -5.5190 C.3    66  ILE66       0.0266
     65  CG1       37.4660   26.1160   -4.1160 C.3    66  ILE66       0.0019
     66  CG2       39.2850   26.3360   -5.8700 C.3    66  ILE66       0.0020
     67  CD1       38.2400   26.7210   -2.9210 C.3    66  ILE66       0.0001
     68  N         38.9190   29.2340   -7.3590 N.am   67  VAL67      -0.1966
     69  CA        39.3380   29.6260   -8.7080 C.3    67  VAL67       0.1727
     70  C         39.4070   28.4200   -9.6370 C.2    67  VAL67       0.2617
     71  O         40.0140   27.4020   -9.3000 O.2    67  VAL67      -0.2715
     72  CB        40.7300   30.3380   -8.7110 C.3    67  VAL67       0.0290
     73  CG1       41.1730   30.6840  -10.1310 C.3    67  VAL67       0.0023
     74  CG2       40.7000   31.5960   -7.8660 C.3    67  VAL67       0.0023
     75  N         38.7790   28.5560  -10.8070 N.am   68  GLY68      -0.1940
     76  CA        38.8220   27.5470  -11.8570 C.3    68  GLY68       0.2014
     77  C         40.2450   27.2110  -12.2450 C.2    68  GLY68       0.2638
     78  O         41.1280   28.0600  -12.1940 O.2    68  GLY68      -0.2714
     79  N         40.4600   25.9570  -12.6170 N.am   69  PHE69      -0.1973
     80  CA        41.7520   25.4760  -13.0610 C.3    69  PHE69       0.1639
     81  C         41.5750   24.9400  -14.4690 C.2    69  PHE69       0.2290
     82  O         40.5730   24.2770  -14.7620 O.2    69  PHE69      -0.2864
     83  CB        42.2310   24.3800  -12.1090 C.3    69  PHE69       0.0560
     84  CG        43.4320   23.6080  -12.5910 C.ar   69  PHE69      -0.0200
     85  CD1       43.2820   22.3350  -13.1240 C.ar   69  PHE69      -0.0042
     86  CD2       44.7120   24.1360  -12.4710 C.ar   69  PHE69      -0.0042
     87  CE1       44.3840   21.6080  -13.5480 C.ar   69  PHE69      -0.0003
     88  CE2       45.8230   23.4160  -12.8890 C.ar   69  PHE69      -0.0003
     89  CZ        45.6590   22.1490  -13.4270 C.ar   69  PHE69      -0.0000
     90  N         50.9070   27.0150  -14.0310 N.3    81  ILE81      -0.1245
     91  CA        49.5650   26.7330  -13.5430 C.3    81  ILE81       0.1561
     92  C         48.6100   27.7170  -14.2020 C.2    81  ILE81       0.2260
     93  O         48.7170   28.9330  -14.0020 O.2    81  ILE81      -0.2867
     94  CB        49.4640   26.8000  -12.0010 C.3    81  ILE81       0.0252
     95  CG1       50.5020   25.8740  -11.3620 C.3    81  ILE81       0.0019
     96  CG2       48.0680   26.3920  -11.5480 C.3    81  ILE81       0.0019
     97  CD1       50.8370   26.1960   -9.9280 C.3    81  ILE81       0.0001
     98  N         44.9480   29.1980  -14.6980 N.3    83  MET83      -0.1245
     99  CA        43.6900   29.3590  -13.9800 C.3    83  MET83       0.1570
    100  C         42.8180   30.4590  -14.5820 C.2    83  MET83       0.2261
    101  O         43.2810   31.2710  -15.3890 O.2    83  MET83      -0.2867
    102  CB        43.9740   29.6460  -12.5040 C.3    83  MET83       0.0387
    103  CG        44.9040   30.8160  -12.2910 C.3    83  MET83       0.0595
    104  SD        45.7590   30.7780  -10.7150 S.3    83  MET83      -0.1393
    105  CE        47.1540   31.8260  -11.1020 C.3    83  MET83       0.0692
    106  N         48.1440   28.9570    2.9140 N.3   130  ASP130     -0.1239
    107  CA        48.5680   30.3160    2.5860 C.3   130  ASP130      0.1674
    108  C         47.3470   31.2270    2.3480 C.2   130  ASP130      0.2266
    109  O         47.1380   31.7390    1.2470 O.2   130  ASP130     -0.2867
    110  CB        49.4840   30.2720    1.3570 C.3   130  ASP130      0.1410
    111  CG        50.3410   31.5340    1.1930 C.2   130  ASP130      0.3668
    112  OD1       50.8990   31.7230    0.0810 O.co2 130  ASP130     -0.2456
    113  OD2       50.4620   32.3300    2.1590 O.co2 130  ASP130     -0.2456
    114  N         45.6920   34.6180    2.7290 N.3   132  LYS132     -0.1245
    115  CA        46.0060   36.0360    2.9230 C.3   132  LYS132      0.1561
    116  C         45.3060   36.8390    1.8160 C.2   132  LYS132      0.2260
    117  O         44.8940   36.2520    0.8110 O.2   132  LYS132     -0.2867
    118  CB        47.5250   36.2670    2.9300 C.3   132  LYS132      0.0271
    119  CG        48.2610   35.9570    1.6310 C.3   132  LYS132      0.0035
    120  CD        49.7150   35.6520    1.9050 C.3   132  LYS132      0.0206
    121  CE        50.5330   35.7280    0.6300 C.3   132  LYS132      0.1093
    122  NZ        51.7030   34.7980    0.6400 N.3   132  LYS132     -0.1314
    123  N         45.7610   35.9930   -1.7780 N.3   135  ASN135     -0.1240
    124  CA        45.3640   34.6650   -2.2450 C.3   135  ASN135      0.1653
    125  C         43.8510   34.5140   -2.2980 C.2   135  ASN135      0.2266
    126  O         43.3340   33.4170   -2.5030 O.2   135  ASN135     -0.2867
    127  CB        45.9880   33.5680   -1.3770 C.3   135  ASN135      0.1155
    128  CG        47.4620   33.3320   -1.6880 C.2   135  ASN135      0.2627
    129  OD1       47.9430   33.6280   -2.7800 O.2   135  ASN135     -0.2716
    130  ND2       48.1830   32.7930   -0.7210 N.am  135  ASN135     -0.0877
    131  N         42.6540   30.9790   -4.1760 N.3   147  CYS147     -0.1221
    132  CA        43.6570   30.2930   -4.9900 C.3   147  CYS147      0.1808
    133  C         44.8630   29.9500   -4.1300 C.2   147  CYS147      0.2601
    134  O         44.8300   30.1440   -2.9210 O.2   147  CYS147     -0.2717
    135  CB        44.0930   31.1680   -6.1600 C.3   147  CYS147      0.0970
    136  SG        44.8150   32.7440   -5.6300 S.3   147  CYS147     -0.0800
    137  N         45.9160   29.4310   -4.7620 N.am  148  ASP148     -0.1959
    138  CA        47.2100   29.1840   -4.1160 C.3   148  ASP148      0.1840
    139  C         47.1000   28.3940   -2.8070 C.2   148  ASP148      0.2622
    140  O         47.7480   28.7250   -1.8110 O.2   148  ASP148     -0.2715
    141  CB        47.9780   30.5040   -3.9210 C.3   148  ASP148      0.1450
    142  CG        48.1970   31.2600   -5.2310 C.2   148  ASP148      0.3671
    143  OD1       48.3590   30.6060   -6.2850 O.co2 148  ASP148     -0.2456
    144  OD2       48.2150   32.5130   -5.2160 O.co2 148  ASP148     -0.2456
    145  N         46.2740   27.3500   -2.8200 N.am  149  PHE149     -0.1960
    146  CA        46.1510   26.4270   -1.6860 C.3   149  PHE149      0.1771
    147  C         47.0590   25.2250   -1.9230 C.2   149  PHE149      0.2620
    148  O         47.5300   25.0320   -3.0300 O.2   149  PHE149     -0.2715
    149  CB        44.6880   25.9920   -1.4670 C.3   149  PHE149      0.0574
    150  CG        43.9530   25.6860   -2.7340 C.ar  149  PHE149     -0.0200
    151  CD1       43.9600   24.4070   -3.2560 C.ar  149  PHE149     -0.0042
    152  CD2       43.2670   26.6920   -3.4110 C.ar  149  PHE149     -0.0042
    153  CE1       43.3040   24.1210   -4.4330 C.ar  149  PHE149     -0.0003
    154  CE2       42.6100   26.4260   -4.5780 C.ar  149  PHE149     -0.0003
    155  CZ        42.6210   25.1280   -5.0970 C.ar  149  PHE149     -0.0000
    156  N         47.2960   24.4240   -0.8870 N.am  150  GLY150     -0.1940
    157  CA        48.2960   23.3620   -0.9470 C.3   150  GLY150      0.2014
    158  C         47.8270   22.0190   -1.4740 C.2   150  GLY150      0.2639
    159  O         47.6270   21.0830   -0.6880 O.2   150  GLY150     -0.2714
    160  N         47.6630   21.9130   -2.7960 N.am  151  VAL151     -0.1963
    161  CA        47.3190   20.6310   -3.4290 C.3   151  VAL151      0.1727
    162  C         48.5090   19.7050   -3.5940 C.2   151  VAL151      0.2616
    163  O         48.3440   18.4800   -3.6270 O.2   151  VAL151     -0.2715
    164  CB        46.6780   20.7870   -4.8390 C.3   151  VAL151      0.0290
    165  CG1       45.1630   20.8650   -4.7470 C.3   151  VAL151      0.0023
    166  CG2       47.2590   21.9680   -5.5810 C.3   151  VAL151      0.0023
    167  N         49.6960   20.2940   -3.7230 N.am  152  SER152     -0.1950
    168  CA        50.8900   19.5470   -4.1040 C.3   152  SER152      0.1924
    169  C         51.9480   19.5020   -3.0050 C.2   152  SER152      0.2314
    170  O         52.6260   20.5080   -2.7260 O.2   152  SER152     -0.2863
    171  CB        51.4850   20.1220   -5.3920 C.3   152  SER152      0.2116
    172  OG        52.7440   19.5330   -5.6840 O.3   152  SER152     -0.2180
    173  N         55.3990   20.3510   -4.3730 N.3   155  LEU155     -0.1231
    174  CA        55.5790   21.7490   -4.7530 C.3   155  LEU155      0.1693
    175  C         55.8060   22.5750   -3.5030 C.2   155  LEU155      0.2591
    176  O         56.5900   23.5150   -3.5260 O.2   155  LEU155     -0.2718
    177  CB        54.3680   22.2820   -5.5240 C.3   155  LEU155      0.0284
    178  CG        54.5270   23.2470   -6.7100 C.3   155  LEU155      0.0019
    179  CD1       53.2380   24.0190   -6.9420 C.3   155  LEU155      0.0001
    180  CD2       55.6860   24.2130   -6.5630 C.3   155  LEU155      0.0001
    181  N         55.1140   22.2310   -2.4170 N.am  156  ILE156     -0.1980
    182  CA        55.3650   22.8660   -1.1220 C.3   156  ILE156      0.1595
    183  C         56.8370   22.6670   -0.7450 C.2   156  ILE156      0.2287
    184  O         57.5390   23.6400   -0.4790 O.2   156  ILE156     -0.2864
    185  CB        54.4260   22.3320   -0.0120 C.3   156  ILE156      0.0276
    186  CG1       52.9770   22.7460   -0.2880 C.3   156  ILE156      0.0022
    187  CG2       54.8530   22.8570    1.3590 C.3   156  ILE156      0.0022
    188  CD1       51.9380   21.9080    0.4370 C.3   156  ILE156      0.0001
    189  N         59.5740   24.7590   -2.7730 N.3   159  MET159     -0.1245
    190  CA        59.6450   26.2050   -2.6220 C.3   159  MET159      0.1570
    191  C         60.0890   26.6300   -1.2210 C.2   159  MET159      0.2261
    192  O         60.6560   27.7140   -1.0440 O.2   159  MET159     -0.2867
    193  CB        58.3010   26.8350   -2.9960 C.3   159  MET159      0.0387
    194  CG        57.7810   26.4060   -4.3840 C.3   159  MET159      0.0595
    195  SD        56.4820   27.4540   -5.0710 S.3   159  MET159     -0.1393
    196  CE        55.1780   27.2140   -3.8730 C.3   159  MET159      0.0692
@<TRIPOS>BOND
     1   101   100    2
     2    82    81    2
     3    98    99    1
     4   100    99    1
     5    81    80    1
     6    92    93    2
     7    92    91    1
     8    21    22    1
     9    90    91    1
    10    99   102    1
    11    24    23    2
    12    87    89   ar
    13    87    85   ar
    14    91    94    1
    15    23    22    1
    16    89    88   ar
    17    85    84   ar
    18    22    25    1
    19    80    79    1
    20    80    83    1
    21    88    86   ar
    22    79    77   am
    23    84    86   ar
    24    84    83    1
    25   102   103    1
    26   103   104    1
    27    77    78    2
    28    77    76    1
    29    30    31    1
    30    94    96    1
    31    94    95    1
    32    76    75    1
    33    33    32    2
    34    25    26    1
    35    32    31    1
    36    95    97    1
    37   105   104    1
    38    31    34    1
    39    75    70   am
    40    41    40    2
    41    26    27    1
    42    44    43    1
    43    40    39    1
    44    49    48    2
    45    48    47    1
    46    42    39    1
    47    42    43    1
    48    73    72    1
    49    19    20    2
    50    19    18    1
    51    34    35    1
    52    34    36    1
    53    50    47    1
    54    50    51    1
    55    39    38    1
    56    70    71    2
    57    70    69    1
    58    43    45    1
    59    35    37    1
    60    47    46    1
    61    52    51    1
    62    27    28    1
    63    18    17    1
    64    16    15    2
    65    57    56    2
    66    72    69    1
    67    72    74    1
    68    69    68    1
    69    51    53    1
    70    54    55    1
    71    28    29    1
    72    56    55    1
    73    17    15   am
    74    63    62    2
    75    15    14    1
    76    55    58    1
    77    68    62   am
    78    58    59    1
    79    62    61    1
    80     1     2    1
    81   179   178    1
    82   178   180    1
    83   178   177    1
    84    14    13    1
    85   143   142   ar
    86   135   136    1
    87   135   132    1
    88    13     7   am
    89    66    64    1
    90   172   171    1
    91     2     3    1
    92    61    64    1
    93    61    60    1
    94     4     3    2
    95   166   164    1
    96   177   174    1
    97    64    65    1
    98   171   168    1
    99     3     5   am
   100   142   144   ar
   101   142   141    1
   102   155   154   ar
   103   155   153   ar
   104   195   194    1
   105   195   196    1
   106   132   131    1
   107   132   133    1
   108   164   165    1
   109   164   161    1
   110   137   133   am
   111   137   138    1
   112   174   173    1
   113   174   175    1
   114     7     8    2
   115     7     6    1
   116   154   152   ar
   117     5     6    1
   118   153   151   ar
   119   194   193    1
   120   133   134    2
   121   138   141    1
   122   138   139    1
   123    65    67    1
   124   168   167    1
   125   168   169    1
   126     6     9    1
   127   167   162   am
   128   163   162    2
   129   162   161    1
   130   176   175    2
   131   175   181   am
   132   161   160    1
   133   152   150   ar
   134   151   150   ar
   135   148   147    2
   136   169   170    2
   137   193   190    1
   138   145   139   am
   139   145   146    1
   140   139   140    2
   141   160   158   am
   142   129   128    2
   143   189   190    1
   144   150   149    1
   145   190   191    1
   146   126   125    2
   147     9    10    1
   148   181   182    1
   149   125   124    1
   150   124   123    1
   151   124   127    1
   152   147   146    1
   153   147   156   am
   154   128   127    1
   155   128   130   am
   156   146   149    1
   157    12    10   am
   158   158   157    1
   159   158   159    2
   160    10    11    2
   161   191   192    2
   162   182   183    1
   163   182   185    1
   164   157   156    1
   165   183   184    2
   166   186   185    1
   167   186   188    1
   168   185   187    1
   169   112   111   ar
   170   121   122    1
   171   121   120    1
   172   117   116    2
   173   111   110    1
   174   111   113   ar
   175   109   108    2
   176   110   107    1
   177   119   120    1
   178   119   118    1
   179   116   115    1
   180   108   107    1
   181   107   106    1
   182   114   115    1
   183   115   118    1
