@<TRIPOS>MOLECULE
tmp/2p59B00.pdb
 149 145 0 0 0
SMALL
GASTEIGER

@<TRIPOS>ATOM
      1  N         96.7050   70.9710   48.1850 N.3    41  GLN41      -0.1231
      2  CA        95.5610   70.1420   48.5400 C.3    41  GLN41       0.1698
      3  C         95.4160   68.8610   47.7230 C.2    41  GLN41       0.2593
      4  O         96.0280   68.6990   46.6710 O.2    41  GLN41      -0.2718
      5  CB        94.2710   70.9650   48.4550 C.3    41  GLN41       0.0381
      6  CG        94.0820   71.7430   47.1600 C.3    41  GLN41       0.0905
      7  CD        92.7780   72.5450   47.1430 C.2    41  GLN41       0.2608
      8  OE1       92.6130   73.4610   46.3350 O.2    41  GLN41      -0.2717
      9  NE2       91.8510   72.2010   48.0370 N.am   41  GLN41      -0.0878
     10  N         94.6020   67.9420   48.2260 N.am   42  THR42      -0.1939
     11  CA        94.3560   66.6850   47.5340 C.3    42  THR42       0.2028
     12  C         92.8740   66.3210   47.5010 C.2    42  THR42       0.2642
     13  O         92.1270   66.6130   48.4320 O.2    42  THR42      -0.2714
     14  CB        95.1020   65.5490   48.2020 C.3    42  THR42       0.1808
     15  OG1       94.6950   64.3050   47.6230 O.3    42  THR42      -0.2208
     16  CG2       94.7980   65.5490   49.6790 C.3    42  THR42       0.0379
     17  N         92.4610   65.6690   46.4220 N.am   43  PHE43      -0.1973
     18  CA        91.0480   65.4110   46.1920 C.3    43  PHE43       0.1639
     19  C         90.7920   64.3510   45.1230 C.2    43  PHE43       0.2290
     20  O         91.5530   63.3890   44.9800 O.2    43  PHE43      -0.2864
     21  CB        90.3370   66.7110   45.8080 C.3    43  PHE43       0.0560
     22  CG        91.0710   67.5290   44.7780 C.ar   43  PHE43      -0.0200
     23  CD1       90.6210   67.5890   43.4700 C.ar   43  PHE43      -0.0042
     24  CD2       92.2080   68.2460   45.1200 C.ar   43  PHE43      -0.0042
     25  CE1       91.2910   68.3450   42.5260 C.ar   43  PHE43      -0.0003
     26  CE2       92.8780   69.0020   44.1790 C.ar   43  PHE43      -0.0003
     27  CZ        92.4190   69.0490   42.8820 C.ar   43  PHE43      -0.0000
     28  N         88.1180   74.5190   41.9880 N.3    57  HIS57      -0.1241
     29  CA        88.5900   75.0740   43.2540 C.3    57  HIS57       0.1621
     30  C         89.6620   74.1840   43.8760 C.2    57  HIS57       0.2264
     31  O         90.0510   74.3850   45.0280 O.2    57  HIS57      -0.2867
     32  CB        87.4240   75.2660   44.2420 C.3    57  HIS57       0.0745
     33  CG        86.9790   74.0070   44.9250 C.ar   57  HIS57       0.0817
     34  ND1       85.8150   73.3450   44.5860 N.ar   57  HIS57      -0.2268
     35  CD2       87.5230   73.3050   45.9520 C.ar   57  HIS57       0.1154
     36  CE1       85.6600   72.2920   45.3730 C.ar   57  HIS57       0.1986
     37  NE2       86.6830   72.2460   46.2110 N.ar   57  HIS57      -0.2212
     38  N         71.7290   69.7100   44.8380 N.3   123  ARG123     -0.1245
     39  CA        71.7900   69.4700   46.2760 C.3   123  ARG123      0.1563
     40  C         71.2000   68.1300   46.7020 C.2   123  ARG123      0.2260
     41  O         70.1690   67.6920   46.1950 O.2   123  ARG123     -0.2867
     42  CB        71.0850   70.5910   47.0330 C.3   123  ARG123      0.0307
     43  CG        71.8700   71.1030   48.2250 C.3   123  ARG123      0.0489
     44  CD        72.1640   72.5930   48.0770 C.3   123  ARG123      0.2205
     45  NE        72.5950   73.2220   49.3270 N.pl3 123  ARG123     -0.0865
     46  CZ        72.0150   73.0270   50.5090 C.cat 123  ARG123      0.5346
     47  NH1       70.9730   72.2140   50.6210 N.pl3 123  ARG123      0.1354
     48  NH2       72.4740   73.6500   51.5820 N.pl3 123  ARG123      0.1354
     49  N         82.3470   66.7720   59.1880 N.3   132  ILE132     -0.1245
     50  CA        82.7240   67.3990   57.9300 C.3   132  ILE132      0.1561
     51  C         84.0660   66.8680   57.4140 C.2   132  ILE132      0.2260
     52  O         84.3770   66.9710   56.2220 O.2   132  ILE132     -0.2867
     53  CB        82.8050   68.9380   58.0720 C.3   132  ILE132      0.0252
     54  CG1       82.9640   69.5630   56.6920 C.3   132  ILE132      0.0019
     55  CG2       83.9810   69.3330   58.9570 C.3   132  ILE132      0.0019
     56  CD1       81.9200   69.0850   55.7170 C.3   132  ILE132      0.0001
     57  N         84.0210   63.8450   54.8880 N.3   135  LEU135     -0.1231
     58  CA        83.8140   64.2390   53.5040 C.3   135  LEU135      0.1693
     59  C         85.0340   64.9130   52.8960 C.2   135  LEU135      0.2592
     60  O         85.1670   64.9640   51.6740 O.2   135  LEU135     -0.2718
     61  CB        82.6030   65.1660   53.3950 C.3   135  LEU135      0.0284
     62  CG        81.2390   64.4900   53.5370 C.3   135  LEU135      0.0019
     63  CD1       80.1520   65.5140   53.2660 C.3   135  LEU135      0.0001
     64  CD2       81.1230   63.3270   52.5670 C.3   135  LEU135      0.0001
     65  N         85.9250   65.4220   53.7440 N.am  136  LYS136     -0.1966
     66  CA        87.1200   66.1220   53.2700 C.3   136  LYS136      0.1728
     67  C         87.8820   65.2880   52.2400 C.2   136  LYS136      0.2617
     68  O         87.9640   64.0660   52.3480 O.2   136  LYS136     -0.2715
     69  CB        88.0330   66.4670   54.4480 C.3   136  LYS136      0.0311
     70  CG        87.5720   67.5880   55.3980 C.3   136  LYS136      0.0038
     71  CD        87.6670   68.9660   54.7830 C.3   136  LYS136      0.0206
     72  CE        87.8330   70.0670   55.8540 C.3   136  LYS136      0.1093
     73  NZ        86.5870   70.3050   56.6580 N.3   136  LYS136     -0.1314
     74  N         88.4210   65.9580   51.2310 N.am  137  GLY137     -0.1940
     75  CA        89.2180   65.2690   50.2430 C.3   137  GLY137      0.2014
     76  C         88.4150   64.5100   49.2050 C.2   137  GLY137      0.2640
     77  O         88.9700   63.6910   48.4630 O.2   137  GLY137     -0.2714
     78  N         87.1130   64.7670   49.1370 N.am  138  SER138     -0.1935
     79  CA        86.2680   64.0300   48.2010 C.3   138  SER138      0.2055
     80  C         85.6640   64.9320   47.1350 C.2   138  SER138      0.2643
     81  O         84.8940   64.4740   46.2890 O.2   138  SER138     -0.2714
     82  CB        85.1650   63.2970   48.9580 C.3   138  SER138      0.2130
     83  OG        85.7180   62.2640   49.7600 O.3   138  SER138     -0.2179
     84  N         86.0340   66.2100   47.1820 N.am  139  SER139     -0.1949
     85  CA        85.6090   67.1940   46.1860 C.3   139  SER139      0.1924
     86  C         86.0060   66.6920   44.7820 C.2   139  SER139      0.2314
     87  O         87.1800   66.4510   44.5050 O.2   139  SER139     -0.2863
     88  CB        86.2670   68.5700   46.4740 C.3   139  SER139      0.2116
     89  OG        86.5570   68.7830   47.8660 O.3   139  SER139     -0.2180
     90  N         80.9130   65.8270   43.4100 N.3   154  PHE154     -0.1227
     91  CA        80.7870   66.4400   44.7320 C.3   154  PHE154      0.1736
     92  C         81.5260   67.7790   44.7570 C.2   154  PHE154      0.2595
     93  O         82.7020   67.8440   44.4100 O.2   154  PHE154     -0.2718
     94  CB        81.3760   65.4750   45.7620 C.3   154  PHE154      0.0547
     95  CG        81.4390   66.0140   47.1500 C.ar  154  PHE154     -0.0202
     96  CD1       82.5950   65.8890   47.8920 C.ar  154  PHE154     -0.0042
     97  CD2       80.3300   66.5850   47.7410 C.ar  154  PHE154     -0.0042
     98  CE1       82.6450   66.3180   49.2070 C.ar  154  PHE154     -0.0003
     99  CE2       80.3710   67.0180   49.0580 C.ar  154  PHE154     -0.0003
    100  CZ        81.5330   66.8810   49.7930 C.ar  154  PHE154     -0.0000
    101  N         80.8490   68.8530   45.1500 N.am  155  ARG155     -0.1966
    102  CA        81.5040   70.1580   45.1090 C.3   155  ARG155      0.1729
    103  C         81.8060   70.7480   46.4760 C.2   155  ARG155      0.2616
    104  O         82.9070   71.2610   46.7010 O.2   155  ARG155     -0.2715
    105  CB        80.6880   71.1740   44.3110 C.3   155  ARG155      0.0348
    106  CG        81.5320   72.3550   43.8690 C.3   155  ARG155      0.0492
    107  CD        80.7080   73.5330   43.4210 C.3   155  ARG155      0.2205
    108  NE        80.3070   74.3540   44.5550 N.pl3 155  ARG155     -0.0865
    109  CZ        79.0440   74.6810   44.8270 C.cat 155  ARG155      0.5346
    110  NH1       78.0550   74.2540   44.0370 N.pl3 155  ARG155      0.1354
    111  NH2       78.7640   75.4250   45.8960 N.pl3 155  ARG155      0.1354
    112  N         80.8370   70.6890   47.3860 N.am  156  ALA156     -0.1963
    113  CA        81.0620   71.1520   48.7510 C.3   156  ALA156      0.1728
    114  C         80.0100   70.6150   49.7080 C.2   156  ALA156      0.2616
    115  O         78.9090   70.2580   49.2950 O.2   156  ALA156     -0.2715
    116  CB        81.0750   72.6670   48.7900 C.3   156  ALA156      0.0334
    117  N         80.3490   70.5590   50.9900 N.am  157  ALA157     -0.1963
    118  CA        79.4250   70.0370   51.9860 C.3   157  ALA157      0.1728
    119  C         78.6960   71.1640   52.6970 C.2   157  ALA157      0.2616
    120  O         79.1980   72.2790   52.7860 O.2   157  ALA157     -0.2715
    121  CB        80.1710   69.1820   52.9960 C.3   157  ALA157      0.0334
    122  N         77.5040   70.8630   53.1980 N.am  158  VAL158     -0.1963
    123  CA        76.7640   71.7880   54.0440 C.3   158  VAL158      0.1727
    124  C         77.0960   71.5360   55.5150 C.2   158  VAL158      0.2616
    125  O         76.3140   70.9290   56.2520 O.2   158  VAL158     -0.2715
    126  CB        75.2510   71.6260   53.8360 C.3   158  VAL158      0.0290
    127  CG1       74.5000   72.5800   54.7400 C.3   158  VAL158      0.0023
    128  CG2       74.8990   71.8830   52.3800 C.3   158  VAL158      0.0023
    129  N         78.2680   72.0070   55.9280 N.am  159  CYS159     -0.1954
    130  CA        78.7340   71.8580   57.3000 C.3   159  CYS159      0.1843
    131  C         77.8600   72.6470   58.2910 C.2   159  CYS159      0.2626
    132  O         77.2340   73.6500   57.9340 O.2   159  CYS159     -0.2714
    133  CB        80.1980   72.3180   57.3770 C.3   159  CYS159      0.0997
    134  SG        80.8410   72.7900   59.0240 S.3   159  CYS159     -0.0797
    135  N         77.8240   72.1750   59.5350 N.am  160  THR160     -0.1950
    136  CA        77.0540   72.8010   60.6150 C.3   160  THR160      0.1897
    137  C         77.6230   72.3370   61.9640 C.2   160  THR160      0.2313
    138  O         77.5280   71.1540   62.3110 O.2   160  THR160     -0.2863
    139  CB        75.5680   72.3840   60.5410 C.3   160  THR160      0.1794
    140  OG1       75.0170   72.8050   59.2870 O.3   160  THR160     -0.2208
    141  CG2       74.7790   72.9910   61.6930 C.3   160  THR160      0.0378
    142  N         76.6390   69.5670   48.1010 N.3   168  ASP168     -0.1239
    143  CA        76.3560   70.5060   47.0460 C.3   168  ASP168      0.1674
    144  C         77.1430   70.0800   45.8240 C.2   168  ASP168      0.2266
    145  O         78.3540   70.2880   45.7680 O.2   168  ASP168     -0.2867
    146  CB        76.7940   71.8950   47.4860 C.3   168  ASP168      0.1410
    147  CG        75.9390   72.9740   46.8910 C.2   168  ASP168      0.3668
    148  OD1       74.8150   73.1650   47.4070 O.co2 168  ASP168     -0.2456
    149  OD2       76.3810   73.6200   45.9110 O.co2 168  ASP168     -0.2456
@<TRIPOS>BOND
     1    28    29    1
     2    25    27   ar
     3    25    23   ar
     4    27    26   ar
     5    29    30    1
     6    29    32    1
     7    90    91    1
     8   107   106    1
     9   107   108    1
    10    23    22   ar
    11   106   105    1
    12    30    31    2
    13   110   109    1
    14    26    24   ar
    15    32    33    1
    16   105   102    1
    17    93    92    2
    18    87    86    2
    19   108   109    2
    20    34    33   ar
    21    34    36   ar
    22    91    92    1
    23    91    94    1
    24    92   101   am
    25    22    24   ar
    26    22    21    1
    27    86    85    1
    28   109   111    1
    29    38    39    1
    30    33    35   ar
    31    20    19    2
    32   102   101    1
    33   102   103    1
    34    19    18    1
    35    36    37   ar
    36    94    95    1
    37   145   144    2
    38    21    18    1
    39   144   143    1
    40   149   147   ar
    41    35    37   ar
    42    85    88    1
    43    85    84    1
    44    18    17    1
    45    41    40    2
    46    39    40    1
    47    39    42    1
    48    81    80    2
    49     8     7    2
    50    17    12   am
    51    88    89    1
    52   103   104    2
    53   103   112   am
    54     4     3    2
    55   147   148   ar
    56   147   146    1
    57    42    43    1
    58   143   146    1
    59   143   142    1
    60    80    84   am
    61    80    79    1
    62     7     6    1
    63     7     9   am
    64    95    97   ar
    65    95    96   ar
    66     6     5    1
    67   112   113    1
    68    12    11    1
    69    12    13    2
    70    11    14    1
    71    11    10    1
    72    15    14    1
    73     3    10   am
    74     3     2    1
    75    97    99   ar
    76    96    98   ar
    77    44    43    1
    78    44    45    1
    79     1     2    1
    80    79    82    1
    81    79    78    1
    82    14    16    1
    83     5     2    1
    84    77    76    2
    85   113   116    1
    86   113   114    1
    87    82    83    1
    88    99   100   ar
    89    78    76   am
    90    76    75    1
    91    98   100   ar
    92   115   114    2
    93    45    46    2
    94   114   117   am
    95    75    74    1
    96    46    47    1
    97    46    48    1
    98   117   118    1
    99    74    67   am
   100    60    59    2
   101   118   119    1
   102   118   121    1
   103    67    68    2
   104    67    66    1
   105   128   126    1
   106    64    62    1
   107   119   120    2
   108   119   122   am
   109    59    58    1
   110    59    65   am
   111   122   123    1
   112    63    62    1
   113    66    65    1
   114    66    69    1
   115    61    58    1
   116    61    62    1
   117    58    57    1
   118   126   123    1
   119   126   127    1
   120   123   124    1
   121    69    70    1
   122    71    70    1
   123    71    72    1
   124   124   129   am
   125   124   125    2
   126    56    54    1
   127    72    73    1
   128   129   130    1
   129    52    51    2
   130    54    53    1
   131   130   133    1
   132   130   131    1
   133   133   134    1
   134    51    50    1
   135    50    53    1
   136    50    49    1
   137   132   131    2
   138    53    55    1
   139   131   135   am
   140   140   139    1
   141   135   136    1
   142   139   136    1
   143   139   141    1
   144   136   137    1
   145   137   138    2
