@<TRIPOS>MOLECULE
tmp/2p5sB00.pdb
 125 119 0 0 0
SMALL
GASTEIGER

@<TRIPOS>ATOM
      1  N        -46.7350   -2.8100  -36.9490 N.3    10  ALA10      -0.1231
      2  CA       -47.5100   -1.8680  -36.1680 C.3    10  ALA10       0.1694
      3  C        -48.8650   -1.6280  -36.8360 C.2    10  ALA10       0.2592
      4  O        -48.9710   -1.6120  -38.0780 O.2    10  ALA10      -0.2718
      5  CB       -46.7470   -0.5670  -36.0150 C.3    10  ALA10       0.0304
      6  N        -49.9060   -1.4750  -36.0140 N.am   11  ALA11      -0.1966
      7  CA       -51.2330   -1.0620  -36.4860 C.3    11  ALA11       0.1728
      8  C        -52.0550   -2.1730  -37.1500 C.2    11  ALA11       0.2616
      9  O        -53.1090   -1.9010  -37.7300 O.2    11  ALA11      -0.2715
     10  CB       -51.1100    0.1470  -37.4200 C.3    11  ALA11       0.0334
     11  N        -51.5840   -3.4200  -37.0690 N.am   12  VAL12      -0.1963
     12  CA       -52.3180   -4.5930  -37.6280 C.3    12  VAL12       0.1727
     13  C        -53.4430   -5.0080  -36.6880 C.2    12  VAL12       0.2617
     14  O        -54.4120   -5.6390  -37.1140 O.2    12  VAL12      -0.2715
     15  CB       -51.3580   -5.8050  -37.9590 C.3    12  VAL12       0.0290
     16  CG1      -50.2720   -5.3670  -38.9390 C.3    12  VAL12       0.0023
     17  CG2      -50.7100   -6.4440  -36.6490 C.3    12  VAL12       0.0023
     18  N        -53.3060   -4.6250  -35.4060 N.am   13  GLY13      -0.1940
     19  CA       -54.2810   -4.8900  -34.3870 C.3    13  GLY13       0.2014
     20  C        -53.9200   -5.8990  -33.3370 C.2    13  GLY13       0.2639
     21  O        -54.8110   -6.5360  -32.7740 O.2    13  GLY13      -0.2714
     22  N        -52.6350   -6.0460  -33.0260 N.am   14  LYS14      -0.1963
     23  CA       -52.1890   -6.9450  -31.9400 C.3    14  LYS14       0.1728
     24  C        -52.8280   -6.6510  -30.5680 C.2    14  LYS14       0.2617
     25  O        -53.3570   -7.5550  -29.9190 O.2    14  LYS14      -0.2715
     26  CB       -50.6640   -6.9180  -31.8040 C.3    14  LYS14       0.0311
     27  CG       -49.8650   -7.4870  -33.0120 C.3    14  LYS14       0.0038
     28  CD       -48.3420   -7.3200  -32.8320 C.3    14  LYS14       0.0206
     29  CE       -47.8490   -5.8640  -32.7730 C.3    14  LYS14       0.1093
     30  NZ       -48.2490   -5.1150  -33.9610 N.3    14  LYS14      -0.1314
     31  N        -52.7450   -5.4020  -30.1060 N.am   15  SER15      -0.1936
     32  CA       -53.4120   -4.9780  -28.8420 C.3    15  SER15       0.2055
     33  C        -54.9110   -5.2200  -28.8550 C.2    15  SER15       0.2643
     34  O        -55.4920   -5.7580  -27.8950 O.2    15  SER15      -0.2714
     35  CB       -53.1970   -3.4930  -28.5760 C.3    15  SER15       0.2130
     36  OG       -51.8290   -3.1770  -28.6100 O.3    15  SER15      -0.2179
     37  N        -55.5400   -4.8100  -29.9400 N.am   16  SER16      -0.1949
     38  CA       -56.9700   -4.9350  -30.0630 C.3    16  SER16       0.1924
     39  C        -57.3510   -6.3730  -30.0460 C.2    16  SER16       0.2314
     40  O        -58.3740   -6.7210  -29.4560 O.2    16  SER16      -0.2863
     41  CB       -57.4660   -4.2580  -31.3350 C.3    16  SER16       0.2116
     42  OG       -57.0680   -2.9050  -31.3530 O.3    16  SER16      -0.2180
     43  N        -63.5230   -3.8720  -27.2490 N.3    26  PHE26      -0.1227
     44  CA       -62.8220   -3.1190  -28.2810 C.3    26  PHE26       0.1736
     45  C        -63.1360   -1.6070  -28.0980 C.2    26  PHE26       0.2595
     46  O        -64.2930   -1.2370  -28.0060 O.2    26  PHE26      -0.2718
     47  CB       -63.2940   -3.5920  -29.6730 C.3    26  PHE26       0.0547
     48  CG       -62.7590   -2.7700  -30.8280 C.ar   26  PHE26      -0.0202
     49  CD1      -61.5350   -3.0930  -31.4280 C.ar   26  PHE26      -0.0042
     50  CD2      -63.4990   -1.7290  -31.3600 C.ar   26  PHE26      -0.0042
     51  CE1      -61.0450   -2.3770  -32.4910 C.ar   26  PHE26      -0.0003
     52  CE2      -63.0050   -0.9760  -32.4310 C.ar   26  PHE26      -0.0003
     53  CZ       -61.7700   -1.3110  -33.0010 C.ar   26  PHE26      -0.0000
     54  N        -62.1290   -0.7410  -28.0780 N.am   27  ARG27      -0.1980
     55  CA       -62.3960    0.7010  -28.0080 C.3    27  ARG27       0.1597
     56  C        -61.6110    1.5040  -29.0500 C.2    27  ARG27       0.2287
     57  O        -60.6950    0.9930  -29.6910 O.2    27  ARG27      -0.2864
     58  CB       -62.1390    1.2340  -26.5790 C.3    27  ARG27       0.0334
     59  CG       -63.0330    0.5480  -25.5580 C.3    27  ARG27       0.0492
     60  CD       -62.7320    0.9420  -24.1450 C.3    27  ARG27       0.2205
     61  NE       -61.3760    0.3980  -23.8360 N.pl3  27  ARG27      -0.0865
     62  CZ       -60.7620    0.6090  -22.6760 C.cat  27  ARG27       0.5346
     63  NH1      -61.2800    1.3830  -21.7570 N.pl3  27  ARG27       0.1354
     64  NH2      -59.5850   -0.0420  -22.4300 N.pl3  27  ARG27       0.1354
     65  N        -46.3410   -4.9550  -29.6140 N.3    51  ALA51      -0.1245
     66  CA       -46.7790   -3.5550  -29.8020 C.3    51  ALA51       0.1562
     67  C        -45.8140   -2.6080  -29.0620 C.2    51  ALA51       0.2260
     68  O        -45.4870   -2.8200  -27.8710 O.2    51  ALA51      -0.2867
     69  CB       -48.1710   -3.3520  -29.3250 C.3    51  ALA51       0.0290
     70  N        -41.9090   -3.2480  -32.3190 N.3    54  GLU54      -0.1245
     71  CA       -41.8480   -3.9550  -33.6020 C.3    54  GLU54       0.1567
     72  C        -40.5050   -3.7400  -34.2920 C.2    54  GLU54       0.2260
     73  O        -39.9740   -4.6540  -34.9150 O.2    54  GLU54      -0.2867
     74  CB       -42.9890   -3.5390  -34.5180 C.3    54  GLU54       0.0388
     75  CG       -44.3340   -3.9620  -34.0270 C.3    54  GLU54       0.1160
     76  CD       -45.0820   -2.8750  -33.2530 C.2    54  GLU54       0.3649
     77  OE1      -44.4370   -1.9530  -32.6900 O.co2  54  GLU54      -0.2457
     78  OE2      -46.3300   -2.9580  -33.2040 O.co2  54  GLU54      -0.2457
     79  N        -56.2710   -9.8860  -39.9630 N.3   104  ASN104     -0.1225
     80  CA       -57.1210   -9.1090  -39.0740 C.3   104  ASN104      0.1785
     81  C        -57.8320   -7.9400  -39.7730 C.2   104  ASN104      0.2597
     82  O        -57.4480   -7.5180  -40.8830 O.2   104  ASN104     -0.2718
     83  CB       -56.3390   -8.5910  -37.8570 C.3   104  ASN104      0.1169
     84  CG       -57.2690   -8.1290  -36.7270 C.2   104  ASN104      0.2627
     85  OD1      -58.2570   -8.7830  -36.4310 O.2   104  ASN104     -0.2716
     86  ND2      -56.9590   -6.9950  -36.1170 N.am  104  ASN104     -0.0877
     87  N        -58.8940   -7.4540  -39.0920 N.am  105  LYS105     -0.1980
     88  CA       -59.7490   -6.3680  -39.5430 C.3   105  LYS105      0.1596
     89  C        -60.6150   -6.7990  -40.7340 C.2   105  LYS105      0.2287
     90  O        -60.8620   -5.9980  -41.6520 O.2   105  LYS105     -0.2864
     91  CB       -58.9420   -5.1150  -39.9000 C.3   105  LYS105      0.0298
     92  CG       -57.8640   -4.7750  -38.9560 C.3   105  LYS105      0.0038
     93  CD       -57.4280   -3.3390  -39.1450 C.3   105  LYS105      0.0206
     94  CE       -56.2770   -2.9750  -38.2780 C.3   105  LYS105      0.1093
     95  NZ       -55.7460   -1.5990  -38.6650 N.3   105  LYS105     -0.1314
     96  N        -63.6670   -7.2100  -40.8400 N.3   107  ASP107     -0.1225
     97  CA       -64.8750   -6.3600  -40.8470 C.3   107  ASP107      0.1805
     98  C        -64.7790   -5.1020  -41.7470 C.2   107  ASP107      0.2597
     99  O        -65.7980   -4.4950  -42.0210 O.2   107  ASP107     -0.2718
    100  CB       -65.2280   -5.9170  -39.4190 C.3   107  ASP107      0.1424
    101  CG       -64.1310   -5.0970  -38.7870 C.2   107  ASP107      0.3668
    102  OD1      -63.1040   -5.7020  -38.3890 O.co2 107  ASP107     -0.2456
    103  OD2      -64.2760   -3.8570  -38.7020 O.co2 107  ASP107     -0.2456
    104  N        -63.5690   -4.7060  -42.1560 N.am  108  ILE108     -0.1980
    105  CA       -63.3600   -3.5090  -42.9960 C.3   108  ILE108      0.1595
    106  C        -63.2070   -3.8340  -44.4590 C.2   108  ILE108      0.2287
    107  O        -63.0210   -2.9300  -45.2740 O.2   108  ILE108     -0.2864
    108  CB       -62.0270   -2.7740  -42.7090 C.3   108  ILE108      0.0276
    109  CG1      -61.8040   -2.4770  -41.2480 C.3   108  ILE108      0.0022
    110  CG2      -61.9420   -1.4820  -43.5560 C.3   108  ILE108      0.0022
    111  CD1      -60.5880   -1.5510  -41.0110 C.3   108  ILE108      0.0001
    112  N        -60.9740   -8.0880  -34.5110 N.3   141  ALA141     -0.1231
    113  CA       -60.9000   -7.6770  -33.1090 C.3   141  ALA141      0.1694
    114  C        -62.0930   -6.7850  -32.7770 C.2   141  ALA141      0.2591
    115  O        -62.6540   -6.8540  -31.6850 O.2   141  ALA141     -0.2718
    116  CB       -59.6010   -6.9470  -32.8430 C.3   141  ALA141      0.0304
    117  N        -62.4980   -5.9670  -33.7510 N.am  142  LYS142     -0.1980
    118  CA       -63.5890   -5.0150  -33.5590 C.3   142  LYS142      0.1596
    119  C        -64.9240   -5.6840  -33.2560 C.2   142  LYS142      0.2287
    120  O        -65.5660   -5.3140  -32.2800 O.2   142  LYS142     -0.2864
    121  CB       -63.7050   -4.0760  -34.7550 C.3   142  LYS142      0.0298
    122  CG       -64.8820   -3.1470  -34.6740 C.3   142  LYS142      0.0038
    123  CD       -64.7160   -1.9950  -35.6040 C.3   142  LYS142      0.0206
    124  CE       -65.8760   -1.0170  -35.5100 C.3   142  LYS142      0.1093
    125  NZ       -65.6170    0.1500  -36.3950 N.3   142  LYS142     -0.1314
@<TRIPOS>BOND
     1   107   106    2
     2   106   105    1
     3   110   108    1
     4   105   108    1
     5   105   104    1
     6   108   109    1
     7   104    98   am
     8    99    98    2
     9    98    97    1
    10    90    89    2
    11   109   111    1
    12    82    81    2
    13    97    96    1
    14    97   100    1
    15    89    88    1
    16    79    80    1
    17    91    88    1
    18    91    92    1
    19    81    87   am
    20    81    80    1
    21    88    87    1
    22   100   101    1
    23    93    92    1
    24    93    94    1
    25    80    83    1
    26    16    15    1
    27   101   103   ar
    28   101   102   ar
    29    95    94    1
    30     4     3    2
    31    15    12    1
    32    15    17    1
    33    83    84    1
    34     9     8    2
    35    12    11    1
    36    12    13    1
    37    10     7    1
    38     8    11   am
    39     8     7    1
    40    14    13    2
    41     1     2    1
    42     3     2    1
    43     3     6   am
    44    84    85    2
    45    84    86   am
    46    13    18   am
    47     7     6    1
    48   125   124    1
    49     2     5    1
    50   123   124    1
    51   123   122    1
    52    18    19    1
    53    73    72    2
    54   121   122    1
    55   121   118    1
    56    74    75    1
    57    74    71    1
    58   112   113    1
    59    19    20    1
    60    72    71    1
    61    75    76    1
    62    30    29    1
    63   117   118    1
    64   117   114   am
    65    71    70    1
    66   118   119    1
    67    20    22   am
    68    20    21    2
    69   119   120    2
    70    76    78   ar
    71    76    77   ar
    72   113   116    1
    73   113   114    1
    74    22    23    1
    75    27    28    1
    76    27    26    1
    77    53    51   ar
    78    53    52   ar
    79    28    29    1
    80   114   115    2
    81    51    49   ar
    82    52    50   ar
    83    23    26    1
    84    23    24    1
    85    49    48   ar
    86    50    48   ar
    87    42    41    1
    88    41    38    1
    89    48    47    1
    90    24    31   am
    91    24    25    2
    92    31    32    1
    93    38    39    1
    94    38    37    1
    95    39    40    2
    96    37    33   am
    97    66    65    1
    98    66    69    1
    99    66    67    1
   100    57    56    2
   101    47    44    1
   102    67    68    2
   103    56    55    1
   104    33    32    1
   105    33    34    2
   106    32    35    1
   107    36    35    1
   108    44    45    1
   109    44    43    1
   110    45    54   am
   111    45    46    2
   112    54    55    1
   113    55    58    1
   114    58    59    1
   115    59    60    1
   116    60    61    1
   117    61    62    2
   118    62    64    1
   119    62    63    1
