@<TRIPOS>MOLECULE
tmp/2p6bD00.pdb
 145 141 0 0 0
SMALL
GASTEIGER

@<TRIPOS>ATOM
      1  N        -16.3670    8.2910  -19.8630 N.3   182  PHE182     -0.1241
      2  CA       -15.3240    8.0900  -18.8750 C.3   182  PHE182      0.1605
      3  C        -14.9220    6.6380  -18.6580 C.2   182  PHE182      0.2264
      4  O        -15.7680    5.7420  -18.6130 O.2   182  PHE182     -0.2867
      5  CB       -15.7850    8.6520  -17.5310 C.3   182  PHE182      0.0534
      6  CG       -16.2910   10.0650  -17.5940 C.ar  182  PHE182     -0.0203
      7  CD1      -15.4070   11.1320  -17.7210 C.ar  182  PHE182     -0.0042
      8  CD2      -17.6520   10.3310  -17.4690 C.ar  182  PHE182     -0.0042
      9  CE1      -15.8700   12.4450  -17.7170 C.ar  182  PHE182     -0.0003
     10  CE2      -18.1270   11.6360  -17.4630 C.ar  182  PHE182     -0.0003
     11  CZ       -17.2330   12.6980  -17.5860 C.ar  182  PHE182     -0.0000
     12  N        -13.5870   11.1310  -22.7550 N.3   262  LEU262     -0.1245
     13  CA       -13.4230   12.4650  -22.1980 C.3   262  LEU262      0.1561
     14  C        -12.4620   12.5310  -21.0160 C.2   262  LEU262      0.2260
     15  O        -11.7240   13.5030  -20.8720 O.2   262  LEU262     -0.2867
     16  CB       -14.7860   13.0300  -21.7810 C.3   262  LEU262      0.0270
     17  CG       -14.8470   14.4770  -21.2730 C.3   262  LEU262      0.0019
     18  CD1      -14.2800   15.4260  -22.3250 C.3   262  LEU262      0.0001
     19  CD2      -16.2960   14.8440  -20.9530 C.3   262  LEU262      0.0001
     20  N        -11.0770   14.8670   -3.5120 N.3   275  TYR275     -0.1241
     21  CA       -10.9660   14.6600   -4.9500 C.3   275  TYR275      0.1605
     22  C         -9.8780   15.5470   -5.5420 C.2   275  TYR275      0.2264
     23  O         -9.3390   16.4320   -4.8760 O.2   275  TYR275     -0.2867
     24  CB       -12.2900   14.9920   -5.6430 C.3   275  TYR275      0.0534
     25  CG       -12.5420   16.4770   -5.7430 C.ar  275  TYR275     -0.0201
     26  CD1      -12.8310   17.2350   -4.6060 C.ar  275  TYR275     -0.0009
     27  CD2      -12.4110   17.1410   -6.9640 C.ar  275  TYR275     -0.0009
     28  CE1      -12.9740   18.6190   -4.6810 C.ar  275  TYR275      0.0417
     29  CE2      -12.5520   18.5220   -7.0520 C.ar  275  TYR275      0.0417
     30  CZ       -12.8300   19.2550   -5.9070 C.ar  275  TYR275      0.1957
     31  OH       -12.9440   20.6230   -5.9880 O.3   275  TYR275     -0.2866
     32  N         -8.6440   17.1940   -9.6390 N.3   277  MET277     -0.1245
     33  CA        -8.8180   17.2960  -11.0780 C.3   277  MET277      0.1570
     34  C         -7.4690   17.7190  -11.6210 C.2   277  MET277      0.2261
     35  O         -6.9320   18.7580  -11.2420 O.2   277  MET277     -0.2867
     36  CB        -9.9160   18.3100  -11.4040 C.3   277  MET277      0.0387
     37  CG       -11.2400   17.9380  -10.7400 C.3   277  MET277      0.0595
     38  SD       -12.7440   18.3890  -11.6300 S.3   277  MET277     -0.1393
     39  CE       -12.9580   20.1020  -11.0700 C.3   277  MET277      0.0692
     40  N        -10.9310   19.5440  -21.1200 N.3   286  PHE286     -0.1228
     41  CA       -11.5020   19.0070  -19.8880 C.3   286  PHE286      0.1721
     42  C        -10.4400   18.2560  -19.0770 C.2   286  PHE286      0.2437
     43  O         -9.5150   17.6690  -19.6420 O.2   286  PHE286     -0.2733
     44  CB       -12.6450   18.0530  -20.2340 C.3   286  PHE286      0.0547
     45  CG       -13.4780   17.6550  -19.0550 C.ar  286  PHE286     -0.0202
     46  CD1      -14.5400   18.4570  -18.6350 C.ar  286  PHE286     -0.0042
     47  CD2      -13.1870   16.4960  -18.3420 C.ar  286  PHE286     -0.0042
     48  CE1      -15.2990   18.1090  -17.5250 C.ar  286  PHE286     -0.0003
     49  CE2      -13.9400   16.1390  -17.2280 C.ar  286  PHE286     -0.0003
     50  CZ       -15.0020   16.9510  -16.8190 C.ar  286  PHE286     -0.0000
     51  N        -10.5490   18.2730  -17.7380 N.am  287  PRO287     -0.2729
     52  CA        -9.5580   17.5600  -16.9190 C.3   287  PRO287      0.1401
     53  C         -9.2990   16.1420  -17.4640 C.2   287  PRO287      0.2269
     54  O        -10.2210   15.3280  -17.5750 O.2   287  PRO287     -0.2865
     55  CB       -10.2100   17.5500  -15.5360 C.3   287  PRO287      0.0296
     56  CG       -10.9260   18.8650  -15.5090 C.3   287  PRO287      0.0237
     57  CD       -11.5610   18.9310  -16.8880 C.3   287  PRO287      0.0939
     58  N        -11.4310   15.8000    3.6960 N.3   305  LYS305     -0.1245
     59  CA       -12.8330   15.6880    3.3550 C.3   305  LYS305      0.1561
     60  C        -12.9090   14.5050    2.3990 C.2   305  LYS305      0.2260
     61  O        -11.9090   14.1220    1.7880 O.2   305  LYS305     -0.2867
     62  CB       -13.3290   16.9400    2.6370 C.3   305  LYS305      0.0271
     63  CG       -13.4180   18.1770    3.5070 C.3   305  LYS305      0.0035
     64  CD       -14.0120   19.3230    2.7150 C.3   305  LYS305      0.0206
     65  CE       -14.2390   20.5590    3.5720 C.3   305  LYS305      0.1093
     66  NZ       -14.9150   21.6120    2.7560 N.3   305  LYS305     -0.1314
     67  N        -22.9960   12.3970  -11.3510 N.3   311  TYR311     -0.1241
     68  CA       -22.9310   12.7860  -12.7440 C.3   311  TYR311      0.1605
     69  C        -24.2050   12.5370  -13.5310 C.2   311  TYR311      0.2264
     70  O        -24.9770   11.6250  -13.2440 O.2   311  TYR311     -0.2867
     71  CB       -21.7710   12.0510  -13.4260 C.3   311  TYR311      0.0534
     72  CG       -21.5550   12.4390  -14.8700 C.ar  311  TYR311     -0.0201
     73  CD1      -20.9560   13.6530  -15.2010 C.ar  311  TYR311     -0.0009
     74  CD2      -21.9940   11.6170  -15.9060 C.ar  311  TYR311     -0.0009
     75  CE1      -20.8040   14.0410  -16.5250 C.ar  311  TYR311      0.0417
     76  CE2      -21.8490   11.9990  -17.2400 C.ar  311  TYR311      0.0417
     77  CZ       -21.2550   13.2110  -17.5410 C.ar  311  TYR311      0.1957
     78  OH       -21.1220   13.6120  -18.8550 O.3   311  TYR311     -0.2866
     79  N        -23.0600   15.7970  -19.1670 N.3   314  ASN314     -0.1225
     80  CA       -22.3560   17.0750  -19.1330 C.3   314  ASN314      0.1785
     81  C        -22.4200   17.8950  -17.8450 C.2   314  ASN314      0.2597
     82  O        -21.9600   19.0340  -17.8130 O.2   314  ASN314     -0.2718
     83  CB       -22.7940   17.9350  -20.3190 C.3   314  ASN314      0.1169
     84  CG       -22.3130   17.3760  -21.6460 C.2   314  ASN314      0.2627
     85  OD1      -22.6090   17.9270  -22.7100 O.2   314  ASN314     -0.2716
     86  ND2      -21.5630   16.2750  -21.5910 N.am  314  ASN314     -0.0877
     87  N        -22.9730   17.3180  -16.7840 N.am  315  VAL315     -0.1966
     88  CA       -23.0540   18.0100  -15.5000 C.3   315  VAL315      0.1727
     89  C        -22.4360   17.1460  -14.4060 C.2   315  VAL315      0.2616
     90  O        -22.9980   16.1300  -14.0030 O.2   315  VAL315     -0.2715
     91  CB       -24.5130   18.3380  -15.1180 C.3   315  VAL315      0.0290
     92  CG1      -24.5630   18.9420  -13.7200 C.3   315  VAL315      0.0023
     93  CG2      -25.1070   19.3090  -16.1240 C.3   315  VAL315      0.0023
     94  N        -21.2710   17.5600  -13.9280 N.am  316  MET316     -0.1963
     95  CA       -20.5640   16.8260  -12.8900 C.3   316  MET316      0.1736
     96  C        -20.6380   17.5910  -11.5740 C.2   316  MET316      0.2616
     97  O        -20.1690   18.7230  -11.4820 O.2   316  MET316     -0.2715
     98  CB       -19.1070   16.6380  -13.3120 C.3   316  MET316      0.0427
     99  CG       -18.2510   15.8450  -12.3490 C.3   316  MET316      0.0599
    100  SD       -16.6100   15.5650  -13.0660 S.3   316  MET316     -0.1393
    101  CE       -16.9770   14.2190  -14.2300 C.3   316  MET316      0.0692
    102  N        -21.2270   16.9720  -10.5580 N.am  317  ASN317     -0.1958
    103  CA       -21.3570   17.6210   -9.2600 C.3   317  ASN317      0.1819
    104  C        -20.5340   16.9160   -8.1870 C.2   317  ASN317      0.2621
    105  O        -20.8250   15.7840   -7.7990 O.2   317  ASN317     -0.2715
    106  CB       -22.8360   17.6760   -8.8510 C.3   317  ASN317      0.1195
    107  CG       -23.0590   18.4400   -7.5600 C.2   317  ASN317      0.2630
    108  OD1      -23.9800   17.9560   -6.7380 O.2   317  ASN317     -0.2716
    109  ND2      -22.4190   19.4650   -7.3100 N.am  317  ASN317     -0.0877
    110  N        -19.4990   17.5990   -7.7130 N.am  318  ILE318     -0.1963
    111  CA       -18.6240   17.0510   -6.6850 C.3   318  ILE318      0.1727
    112  C        -19.1670   17.3810   -5.3040 C.2   318  ILE318      0.2616
    113  O        -19.1370   18.5380   -4.8830 O.2   318  ILE318     -0.2715
    114  CB       -17.2110   17.6440   -6.7840 C.3   318  ILE318      0.0290
    115  CG1      -16.6900   17.5250   -8.2190 C.3   318  ILE318      0.0022
    116  CG2      -16.2920   16.9470   -5.7870 C.3   318  ILE318      0.0023
    117  CD1      -16.5010   16.1030   -8.6950 C.3   318  ILE318      0.0001
    118  N        -19.6570   16.3680   -4.6000 N.am  319  ARG319     -0.1963
    119  CA       -20.2010   16.5590   -3.2620 C.3   319  ARG319      0.1729
    120  C        -19.2190   16.0700   -2.2020 C.2   319  ARG319      0.2616
    121  O        -18.7880   14.9210   -2.2280 O.2   319  ARG319     -0.2715
    122  CB       -21.5340   15.8090   -3.1130 C.3   319  ARG319      0.0348
    123  CG       -22.6700   16.3400   -3.9870 C.3   319  ARG319      0.0492
    124  CD       -22.9990   17.7840   -3.6350 C.3   319  ARG319      0.2205
    125  NE       -23.2970   17.9290   -2.2120 N.pl3 319  ARG319     -0.0865
    126  CZ       -24.3610   17.4010   -1.6130 C.cat 319  ARG319      0.5346
    127  NH1      -25.2400   16.6940   -2.3170 N.pl3 319  ARG319      0.1354
    128  NH2      -24.5400   17.5640   -0.3070 N.pl3 319  ARG319      0.1354
    129  N        -18.8750   16.9460   -1.2670 N.am  320  GLN320     -0.1977
    130  CA       -17.9410   16.6050   -0.1990 C.3   320  GLN320      0.1601
    131  C        -18.6620   16.3510    1.1210 C.2   320  GLN320      0.2287
    132  O        -19.8310   16.6860    1.2770 O.2   320  GLN320     -0.2864
    133  CB       -16.9460   17.7510    0.0040 C.3   320  GLN320      0.0394
    134  CG       -16.0510   18.0490   -1.1870 C.3   320  GLN320      0.0908
    135  CD       -15.2690   19.3400   -1.0020 C.2   320  GLN320      0.2608
    136  OE1      -15.8530   20.3970   -0.7670 O.2   320  GLN320     -0.2717
    137  NE2      -13.9530   19.2620   -1.1070 N.am  320  GLN320     -0.0878
    138  N        -17.6940   15.4650    5.6590 N.3   322  ASN322     -0.1240
    139  CA       -16.7330   15.2320    6.7260 C.3   322  ASN322      0.1653
    140  C        -17.0040   13.8980    7.4210 C.2   322  ASN322      0.2266
    141  O        -18.0600   13.2860    7.2350 O.2   322  ASN322     -0.2867
    142  CB       -16.7820   16.3780    7.7460 C.3   322  ASN322      0.1155
    143  CG       -16.4760   17.7370    7.1220 C.2   322  ASN322      0.2627
    144  OD1      -15.5200   17.8880    6.3470 O.2   322  ASN322     -0.2716
    145  ND2      -17.2830   18.7400    7.4690 N.am  322  ASN322     -0.0877
@<TRIPOS>BOND
     1    12    13    1
     2    85    84    2
     3    18    17    1
     4    13    16    1
     5    13    14    1
     6    16    17    1
     7    84    86   am
     8    84    83    1
     9    17    19    1
    10    40    41    1
    11    14    15    2
    12    83    80    1
    13    44    41    1
    14    44    45    1
    15    41    42    1
    16     1     2    1
    17    43    42    2
    18    79    80    1
    19    80    81    1
    20    42    51   am
    21    45    46   ar
    22    45    47   ar
    23     2     3    1
    24     2     5    1
    25    78    77    1
    26     3     4    2
    27    46    48   ar
    28    47    49   ar
    29    81    82    2
    30    81    87   am
    31    51    52    1
    32    51    57    1
    33     7     9   ar
    34     7     6   ar
    35     9    11   ar
    36     6     5    1
    37     6     8   ar
    38    11    10   ar
    39    54    53    2
    40    77    76   ar
    41    77    75   ar
    42    48    50   ar
    43     8    10   ar
    44    53    52    1
    45    76    74   ar
    46    49    50   ar
    47    52    55    1
    48    57    56    1
    49    87    88    1
    50    75    73   ar
    51    93    91    1
    52    74    72   ar
    53    55    56    1
    54    88    91    1
    55    88    89    1
    56    73    72   ar
    57    91    92    1
    58    72    71    1
    59    89    90    2
    60    89    94   am
    61   101   100    1
    62    94    95    1
    63    69    70    2
    64    69    68    1
    65    71    68    1
    66    98    95    1
    67    98    99    1
    68   100    99    1
    69    95    96    1
    70    68    67    1
    71    38    39    1
    72    38    37    1
    73    34    35    2
    74    34    33    1
    75    96    97    2
    76    96   102   am
    77    36    33    1
    78    36    37    1
    79    33    32    1
    80   102   103    1
    81   103   106    1
    82   103   104    1
    83   106   107    1
    84   117   115    1
    85   115   114    1
    86   104   105    2
    87   104   110   am
    88   110   111    1
    89   107   109   am
    90   107   108    2
    91    29    27   ar
    92    29    30   ar
    93    27    25   ar
    94   114   111    1
    95   114   116    1
    96   111   112    1
    97    31    30    1
    98    30    28   ar
    99    25    24    1
   100    25    26   ar
   101    24    21    1
   102    22    21    1
   103    22    23    2
   104   112   113    2
   105   112   118   am
   106    21    20    1
   107    28    26   ar
   108   118   119    1
   109   123   124    1
   110   123   122    1
   111   124   125    1
   112   119   122    1
   113   119   120    1
   114   127   126    1
   115   121   120    2
   116   125   126    2
   117   120   129   am
   118   126   128    1
   119   129   130    1
   120   134   135    1
   121   134   133    1
   122   137   135   am
   123   135   136    2
   124   130   133    1
   125   130   131    1
   126   131   132    2
   127    61    60    2
   128    60    59    1
   129    62    59    1
   130    62    63    1
   131    64    63    1
   132    64    65    1
   133    66    65    1
   134    59    58    1
   135   138   139    1
   136   144   143    2
   137   139   140    1
   138   139   142    1
   139   143   145   am
   140   143   142    1
   141   141   140    2
