@<TRIPOS>MOLECULE
tmp/2p6fA01.pdb
 136 130 0 0 0
SMALL
GASTEIGER

@<TRIPOS>ATOM
      1  N         11.7480  -91.3110   59.3510 N.3    17  ASN17      -0.1240
      2  CA        10.9140  -92.3850   58.8000 C.3    17  ASN17       0.1653
      3  C         10.1310  -91.9510   57.5490 C.2    17  ASN17       0.2266
      4  O          9.2200  -91.0670   57.6500 O.2    17  ASN17      -0.2867
      5  CB         9.9560  -92.9150   59.8960 C.3    17  ASN17       0.1155
      6  CG        10.5790  -92.7510   61.2980 C.2    17  ASN17       0.2627
      7  OD1       11.6500  -93.3250   61.6050 O.2    17  ASN17      -0.2716
      8  ND2        9.9050  -91.9600   62.1530 N.am   17  ASN17      -0.0877
      9  N          1.5870  -84.6080   47.8520 N.3    85  VAL85      -0.1231
     10  CA         1.9170  -85.6560   48.8120 C.3    85  VAL85       0.1692
     11  C          2.5920  -86.8090   48.0740 C.2    85  VAL85       0.2591
     12  O          2.1230  -87.2380   47.0170 O.2    85  VAL85      -0.2718
     13  CB         0.6720  -86.1320   49.6180 C.3    85  VAL85       0.0266
     14  CG1       -0.4080  -86.7180   48.6970 C.3    85  VAL85       0.0020
     15  CG2        1.0730  -87.1230   50.7140 C.3    85  VAL85       0.0020
     16  N          3.6960  -87.2920   48.6420 N.am   86  GLU86      -0.1979
     17  CA         4.5480  -88.2970   48.0020 C.3    86  GLU86       0.1602
     18  C          3.8030  -89.6060   47.7320 C.2    86  GLU86       0.2287
     19  O          3.7380  -90.0700   46.5880 O.2    86  GLU86      -0.2864
     20  CB         5.7940  -88.5760   48.8590 C.3    86  GLU86       0.0415
     21  CG         6.2800  -87.4010   49.7280 C.3    86  GLU86       0.1163
     22  CD         6.8380  -86.2300   48.9220 C.2    86  GLU86       0.3649
     23  OE1        7.6300  -86.4630   47.9800 O.co2  86  GLU86      -0.2457
     24  OE2        6.4910  -85.0710   49.2460 O.co2  86  GLU86      -0.2457
     25  N         -1.1960  -92.8400   51.2690 N.3    90  ALA90      -0.1245
     26  CA        -0.8710  -92.1820   52.5340 C.3    90  ALA90       0.1562
     27  C         -2.0320  -92.1490   53.5230 C.2    90  ALA90       0.2260
     28  O         -1.8270  -92.2870   54.7300 O.2    90  ALA90      -0.2867
     29  CB        -0.3600  -90.7710   52.2700 C.3    90  ALA90       0.0290
     30  N         -3.9260  -89.4830   53.6300 N.3    92  PHE92      -0.1241
     31  CA        -4.1770  -88.0520   53.7030 C.3    92  PHE92       0.1605
     32  C         -3.7610  -87.3450   52.4230 C.2    92  PHE92       0.2264
     33  O         -2.7330  -87.6700   51.8230 O.2    92  PHE92      -0.2867
     34  CB        -3.4620  -87.4320   54.9100 C.3    92  PHE92       0.0534
     35  CG        -1.9610  -87.5210   54.8480 C.ar   92  PHE92      -0.0203
     36  CD1       -1.2080  -86.4480   54.3830 C.ar   92  PHE92      -0.0042
     37  CD2       -1.2990  -88.6710   55.2680 C.ar   92  PHE92      -0.0042
     38  CE1        0.1780  -86.5250   54.3260 C.ar   92  PHE92      -0.0003
     39  CE2        0.0840  -88.7550   55.2180 C.ar   92  PHE92      -0.0003
     40  CZ         0.8240  -87.6820   54.7450 C.ar   92  PHE92      -0.0000
     41  N         -3.3690  -83.2430   50.7790 N.3    94  PHE94      -0.1241
     42  CA        -3.3940  -81.8150   51.0470 C.3    94  PHE94       0.1605
     43  C         -4.7350  -81.2460   50.6040 C.2    94  PHE94       0.2264
     44  O         -5.4010  -81.8120   49.7280 O.2    94  PHE94      -0.2867
     45  CB        -2.2400  -81.1030   50.3420 C.3    94  PHE94       0.0534
     46  CG        -0.9670  -81.0750   51.1440 C.ar   94  PHE94      -0.0203
     47  CD1       -0.0250  -82.0910   51.0180 C.ar   94  PHE94      -0.0042
     48  CD2       -0.7100  -80.0280   52.0270 C.ar   94  PHE94      -0.0042
     49  CE1        1.1550  -82.0660   51.7620 C.ar   94  PHE94      -0.0003
     50  CE2        0.4660  -79.9920   52.7740 C.ar   94  PHE94      -0.0003
     51  CZ         1.4010  -81.0130   52.6410 C.ar   94  PHE94      -0.0000
     52  N         12.7700  -76.1260   52.2270 N.3   187  ALA187     -0.1231
     53  CA        12.4200  -77.4600   51.7750 C.3   187  ALA187      0.1694
     54  C         12.6730  -78.4730   52.8810 C.2   187  ALA187      0.2593
     55  O         13.4020  -78.1910   53.8380 O.2   187  ALA187     -0.2718
     56  CB        13.2160  -77.8170   50.5300 C.3   187  ALA187      0.0304
     57  N         12.0560  -79.6460   52.7500 N.am  188  GLY188     -0.1942
     58  CA        12.2830  -80.7460   53.6770 C.3   188  GLY188      0.2014
     59  C         13.5910  -81.4580   53.3910 C.2   188  GLY188      0.2638
     60  O         14.2350  -81.9780   54.3020 O.2   188  GLY188     -0.2714
     61  N         13.9810  -81.4720   52.1190 N.am  189  ILE189     -0.1977
     62  CA        15.1990  -82.1520   51.6750 C.3   189  ILE189      0.1596
     63  C         16.4690  -81.3430   51.9660 C.2   189  ILE189      0.2287
     64  O         16.4060  -80.1380   52.2250 O.2   189  ILE189     -0.2864
     65  CB        15.1340  -82.5220   50.1680 C.3   189  ILE189      0.0276
     66  CG1       14.7750  -81.2920   49.3200 C.3   189  ILE189      0.0022
     67  CG2       14.1350  -83.6570   49.9360 C.3   189  ILE189      0.0022
     68  CD1       15.1040  -81.4350   47.8390 C.3   189  ILE189      0.0001
     69  N          9.9480  -79.5870   63.0760 N.3   200  TYR200     -0.1241
     70  CA         8.4990  -79.4780   63.2610 C.3   200  TYR200      0.1605
     71  C          8.0240  -80.0860   64.5890 C.2   200  TYR200      0.2264
     72  O          8.6870  -80.9550   65.1540 O.2   200  TYR200     -0.2867
     73  CB         7.7500  -80.0890   62.0720 C.3   200  TYR200      0.0534
     74  CG         7.4360  -79.0890   60.9820 C.ar  200  TYR200     -0.0201
     75  CD1        8.2100  -79.0210   59.8230 C.ar  200  TYR200     -0.0009
     76  CD2        6.3680  -78.2000   61.1150 C.ar  200  TYR200     -0.0009
     77  CE1        7.9230  -78.0940   58.8170 C.ar  200  TYR200      0.0417
     78  CE2        6.0730  -77.2690   60.1210 C.ar  200  TYR200      0.0417
     79  CZ         6.8530  -77.2200   58.9740 C.ar  200  TYR200      0.1957
     80  OH         6.5580  -76.2970   57.9900 O.3   200  TYR200     -0.2866
     81  N          4.1790  -80.7900   67.2750 N.3   202  HIS202     -0.1241
     82  CA         2.7330  -81.0160   67.2780 C.3   202  HIS202      0.1621
     83  C          2.1070  -80.8830   68.6650 C.2   202  HIS202      0.2264
     84  O          2.4410  -81.6400   69.5820 O.2   202  HIS202     -0.2867
     85  CB         2.3980  -82.4070   66.7210 C.3   202  HIS202      0.0745
     86  CG         3.0620  -82.7220   65.4180 C.ar  202  HIS202      0.0817
     87  ND1        2.7220  -82.0960   64.2370 N.ar  202  HIS202     -0.2268
     88  CD2        4.0380  -83.6070   65.1060 C.ar  202  HIS202      0.1154
     89  CE1        3.4650  -82.5760   63.2560 C.ar  202  HIS202      0.1986
     90  NE2        4.2710  -83.4950   63.7570 N.ar  202  HIS202     -0.2212
     91  N         -4.5400  -92.2940   62.6180 N.3   214  ASP214     -0.1225
     92  CA        -3.1450  -92.7340   62.4520 C.3   214  ASP214      0.1805
     93  C         -2.1560  -91.5680   62.3550 C.2   214  ASP214      0.2597
     94  O         -1.0230  -91.7440   61.8990 O.2   214  ASP214     -0.2718
     95  CB        -2.9850  -93.6910   61.2540 C.3   214  ASP214      0.1424
     96  CG        -3.6280  -95.0550   61.4930 C.2   214  ASP214      0.3668
     97  OD1       -3.6370  -95.5320   62.6580 O.co2 214  ASP214     -0.2456
     98  OD2       -4.1160  -95.6590   60.5040 O.co2 214  ASP214     -0.2456
     99  N         -2.5830  -90.3880   62.8020 N.am  215  PHE215     -0.1976
    100  CA        -1.7310  -89.2010   62.7610 C.3   215  PHE215      0.1639
    101  C         -0.9400  -88.9520   64.0420 C.2   215  PHE215      0.2290
    102  O         -0.0500  -88.0960   64.0780 O.2   215  PHE215     -0.2864
    103  CB        -2.5290  -87.9710   62.3400 C.3   215  PHE215      0.0560
    104  CG        -2.3350  -87.6040   60.9050 C.ar  215  PHE215     -0.0200
    105  CD1       -2.9030  -88.3700   59.8940 C.ar  215  PHE215     -0.0042
    106  CD2       -1.5630  -86.5070   60.5620 C.ar  215  PHE215     -0.0042
    107  CE1       -2.7160  -88.0380   58.5650 C.ar  215  PHE215     -0.0003
    108  CE2       -1.3710  -86.1670   59.2330 C.ar  215  PHE215     -0.0003
    109  CZ        -1.9460  -86.9340   58.2330 C.ar  215  PHE215     -0.0000
    110  N         -5.9260  -81.0350   55.9110 N.3   315  PHE315     -0.1241
    111  CA        -5.7800  -82.2270   55.0980 C.3   315  PHE315      0.1605
    112  C         -7.1580  -82.7830   54.8060 C.2   315  PHE315      0.2264
    113  O         -8.0880  -82.6050   55.5990 O.2   315  PHE315     -0.2867
    114  CB        -4.9750  -83.3080   55.8230 C.3   315  PHE315      0.0534
    115  CG        -3.5000  -83.0470   55.8840 C.ar  315  PHE315     -0.0203
    116  CD1       -2.7250  -83.6630   56.8570 C.ar  315  PHE315     -0.0042
    117  CD2       -2.8810  -82.1940   54.9790 C.ar  315  PHE315     -0.0042
    118  CE1       -1.3570  -83.4380   56.9300 C.ar  315  PHE315     -0.0003
    119  CE2       -1.5140  -81.9580   55.0450 C.ar  315  PHE315     -0.0003
    120  CZ        -0.7490  -82.5830   56.0240 C.ar  315  PHE315     -0.0000
    121  N          8.6910  -85.3900   63.9290 N.3   398  ASP398     -0.1239
    122  CA         9.6840  -85.8060   62.9480 C.3   398  ASP398      0.1674
    123  C          9.4870  -85.0610   61.6260 C.2   398  ASP398      0.2266
    124  O          8.4290  -85.1480   60.9990 O.2   398  ASP398     -0.2867
    125  CB         9.6420  -87.3260   62.7530 C.3   398  ASP398      0.1410
    126  CG        10.2850  -88.0830   63.9100 C.2   398  ASP398      0.3668
    127  OD1       11.3750  -88.6700   63.7200 O.co2 398  ASP398     -0.2456
    128  OD2        9.7010  -88.0820   65.0170 O.co2 398  ASP398     -0.2456
    129  N         12.6150  -78.4030   58.6500 N.3   401  LEU401     -0.1245
    130  CA        12.6970  -77.3240   57.6710 C.3   401  LEU401      0.1561
    131  C         14.1360  -76.8670   57.5270 C.2   401  LEU401      0.2260
    132  O         14.7620  -76.4310   58.4980 O.2   401  LEU401     -0.2867
    133  CB        11.8060  -76.1290   58.0360 C.3   401  LEU401      0.0270
    134  CG        10.5160  -75.8480   57.2540 C.3   401  LEU401      0.0019
    135  CD1       10.1110  -74.3910   57.4310 C.3   401  LEU401      0.0001
    136  CD2       10.6280  -76.1800   55.7710 C.3   401  LEU401      0.0001
@<TRIPOS>BOND
     1    19    18    2
     2    12    11    2
     3    18    17    1
     4    68    66    1
     5     9    10    1
     6    23    22   ar
     7    17    16    1
     8    17    20    1
     9    11    16   am
    10    11    10    1
    11    14    13    1
    12    10    13    1
    13    20    21    1
    14    22    24   ar
    15    22    21    1
    16    66    65    1
    17    13    15    1
    18    44    43    2
    19    67    65    1
    20    65    62    1
    21    45    42    1
    22    45    46    1
    23    56    53    1
    24    43    42    1
    25    41    42    1
    26    47    46   ar
    27    47    49   ar
    28    46    48   ar
    29    25    26    1
    30    62    63    1
    31    62    61    1
    32    49    51   ar
    33    53    52    1
    34    53    54    1
    35    33    32    2
    36    63    64    2
    37    48    50   ar
    38    61    59   am
    39    29    26    1
    40    32    31    1
    41    26    27    1
    42    51    50   ar
    43    57    54   am
    44    57    58    1
    45    54    55    2
    46    59    58    1
    47    59    60    2
    48    27    28    2
    49    30    31    1
    50    31    34    1
    51    38    36   ar
    52    38    40   ar
    53    36    35   ar
    54    40    39   ar
    55   112   111    1
    56   112   113    2
    57    35    34    1
    58    35    37   ar
    59   117   119   ar
    60   117   115   ar
    61   119   120   ar
    62   111   114    1
    63   111   110    1
    64    39    37   ar
    65   136   134    1
    66   114   115    1
    67   115   116   ar
    68   120   118   ar
    69   116   118   ar
    70   134   135    1
    71   134   133    1
    72   131   130    1
    73   131   132    2
    74     3     4    2
    75     3     2    1
    76   130   133    1
    77   130   129    1
    78    80    79    1
    79   109   107   ar
    80   109   108   ar
    81   107   105   ar
    82     2     1    1
    83     2     5    1
    84    77    79   ar
    85    77    75   ar
    86    79    78   ar
    87   108   106   ar
    88    75    74   ar
    89   105   104   ar
    90     5     6    1
    91    78    76   ar
    92    98    96   ar
    93   106   104   ar
    94   104   103    1
    95    74    76   ar
    96    74    73    1
    97   124   123    2
    98    95    96    1
    99    95    92    1
   100     6     7    2
   101     6     8   am
   102    96    97   ar
   103   123   122    1
   104    94    93    2
   105    73    70    1
   106   103   100    1
   107    93    92    1
   108    93    99   am
   109    92    91    1
   110   125   122    1
   111   125   126    1
   112   100    99    1
   113   100   101    1
   114   122   121    1
   115    69    70    1
   116    89    90   ar
   117    89    87   ar
   118    70    71    1
   119   127   126   ar
   120    90    88   ar
   121   126   128   ar
   122   101   102    2
   123    87    86   ar
   124    71    72    2
   125    88    86   ar
   126    86    85    1
   127    85    82    1
   128    81    82    1
   129    82    83    1
   130    83    84    2
