@<TRIPOS>MOLECULE
tmp/2p6fD01.pdb
 187 178 0 0 0
SMALL
GASTEIGER

@<TRIPOS>ATOM
      1  N         21.0010   -1.3670  -18.2470 N.3    84  TYR84      -0.1241
      2  CA        21.8580   -0.7730  -17.2050 C.3    84  TYR84       0.1605
      3  C         22.1880   -1.7420  -16.0600 C.2    84  TYR84       0.2264
      4  O         22.5410   -1.3170  -14.9600 O.2    84  TYR84      -0.2867
      5  CB        21.1980    0.4990  -16.6480 C.3    84  TYR84       0.0534
      6  CG        22.1590    1.5750  -16.1750 C.ar   84  TYR84      -0.0201
      7  CD1       22.6040    2.5680  -17.0460 C.ar   84  TYR84      -0.0009
      8  CD2       22.6050    1.6130  -14.8530 C.ar   84  TYR84      -0.0009
      9  CE1       23.4780    3.5660  -16.6160 C.ar   84  TYR84       0.0417
     10  CE2       23.4800    2.6040  -14.4140 C.ar   84  TYR84       0.0417
     11  CZ        23.9100    3.5760  -15.3000 C.ar   84  TYR84       0.1957
     12  OH        24.7720    4.5560  -14.8690 O.3    84  TYR84      -0.2866
     13  N         18.9980  -11.0700  -12.7680 N.3    90  ALA90      -0.1245
     14  CA        19.3090  -10.5330  -11.4410 C.3    90  ALA90       0.1562
     15  C         18.0660  -10.3490  -10.5770 C.2    90  ALA90       0.2260
     16  O         18.1640  -10.2160   -9.3550 O.2    90  ALA90      -0.2867
     17  CB        20.0660   -9.2200  -11.5680 C.3    90  ALA90       0.0290
     18  N         16.0090   -7.8270  -10.8370 N.3    92  PHE92      -0.1241
     19  CA        15.7520   -6.3990  -10.6660 C.3    92  PHE92       0.1605
     20  C         16.2860   -5.5670  -11.8300 C.2    92  PHE92       0.2264
     21  O         17.3450   -5.8620  -12.3910 O.2    92  PHE92      -0.2867
     22  CB        16.3260   -5.8850   -9.3390 C.3    92  PHE92       0.0534
     23  CG        17.7890   -5.5620   -9.3940 C.ar   92  PHE92      -0.0203
     24  CD1       18.2150   -4.2440   -9.5350 C.ar   92  PHE92      -0.0042
     25  CD2       18.7420   -6.5740   -9.3140 C.ar   92  PHE92      -0.0042
     26  CE1       19.5690   -3.9380   -9.5950 C.ar   92  PHE92      -0.0003
     27  CE2       20.0990   -6.2790   -9.3730 C.ar   92  PHE92      -0.0003
     28  CZ        20.5140   -4.9580   -9.5100 C.ar   92  PHE92      -0.0000
     29  N         16.7490   -1.2770  -13.2270 N.3    94  PHE94      -0.1241
     30  CA        16.7050    0.1220  -12.8350 C.3    94  PHE94       0.1605
     31  C         15.3800    0.6920  -13.3140 C.2    94  PHE94       0.2264
     32  O         14.8140    0.2150  -14.2990 O.2    94  PHE94      -0.2867
     33  CB        17.8650    0.9020  -13.4530 C.3    94  PHE94       0.0534
     34  CG        19.1200    0.8850  -12.6270 C.ar   94  PHE94      -0.0203
     35  CD1       20.0360   -0.1600  -12.7450 C.ar   94  PHE94      -0.0042
     36  CD2       19.3930    1.9260  -11.7410 C.ar   94  PHE94      -0.0042
     37  CE1       21.1970   -0.1710  -11.9840 C.ar   94  PHE94      -0.0003
     38  CE2       20.5500    1.9250  -10.9770 C.ar   94  PHE94      -0.0003
     39  CZ        21.4540    0.8730  -11.0990 C.ar   94  PHE94      -0.0000
     40  N         14.6430    4.2830  -14.1040 N.3    96  TYR96      -0.1241
     41  CA        14.8270    5.6930  -14.4020 C.3    96  TYR96       0.1605
     42  C         13.4930    6.2800  -14.8630 C.2    96  TYR96       0.2264
     43  O         13.0240    6.0060  -15.9760 O.2    96  TYR96      -0.2867
     44  CB        15.9060    5.8920  -15.4720 C.3    96  TYR96       0.0534
     45  CG        17.3350    5.6530  -15.0120 C.ar   96  TYR96      -0.0201
     46  CD1       18.0580    4.5500  -15.4690 C.ar   96  TYR96      -0.0009
     47  CD2       17.9700    6.5380  -14.1380 C.ar   96  TYR96      -0.0009
     48  CE1       19.3730    4.3260  -15.0620 C.ar   96  TYR96       0.0417
     49  CE2       19.2860    6.3230  -13.7240 C.ar   96  TYR96       0.0417
     50  CZ        19.9810    5.2140  -14.1890 C.ar   96  TYR96       0.1957
     51  OH        21.2810    4.9890  -13.7860 O.3    96  TYR96      -0.2866
     52  N         27.9230   11.2720  -17.0390 N.3   150  ASN150     -0.1240
     53  CA        27.1130   10.2650  -16.3690 C.3   150  ASN150      0.1653
     54  C         26.1490    9.5930  -17.3370 C.2   150  ASN150      0.2266
     55  O         25.8650   10.1300  -18.4090 O.2   150  ASN150     -0.2867
     56  CB        26.3400   10.8920  -15.2070 C.3   150  ASN150      0.1155
     57  CG        26.3740   10.0370  -13.9480 C.2   150  ASN150      0.2627
     58  OD1       26.2480    8.8090  -14.0000 O.2   150  ASN150     -0.2716
     59  ND2       26.5450   10.6920  -12.8040 N.am  150  ASN150     -0.0877
     60  N         32.7740    9.3240  -12.5040 N.3   186  THR186     -0.1203
     61  CA        32.8530    8.3210  -11.4490 C.3   186  THR186      0.1994
     62  C         32.3230    6.9870  -11.9510 C.2   186  THR186      0.2618
     63  O         31.2550    6.9320  -12.5700 O.2   186  THR186     -0.2717
     64  CB        32.0360    8.7330  -10.2130 C.3   186  THR186      0.1784
     65  OG1       30.6710    8.9530  -10.5910 O.3   186  THR186     -0.2211
     66  CG2       32.6010    9.9910   -9.5810 C.3   186  THR186      0.0376
     67  N         33.0650    5.9170  -11.6780 N.am  187  ALA187     -0.1965
     68  CA        32.6720    4.5790  -12.1080 C.3   187  ALA187      0.1728
     69  C         32.8650    3.5430  -11.0050 C.2   187  ALA187      0.2616
     70  O         33.5720    3.7890  -10.0280 O.2   187  ALA187     -0.2715
     71  CB        33.4490    4.1780  -13.3560 C.3   187  ALA187      0.0334
     72  N         32.2230    2.3900  -11.1620 N.am  188  GLY188     -0.1955
     73  CA        32.4460    1.2610  -10.2670 C.3   188  GLY188      0.1869
     74  C         33.7050    0.5110  -10.6630 C.2   188  GLY188      0.2309
     75  O         34.4270   -0.0020   -9.8060 O.2   188  GLY188     -0.2863
     76  N         29.9400    2.5960   -0.9820 N.3   200  TYR200     -0.1241
     77  CA        28.5010    2.6310   -0.7210 C.3   200  TYR200      0.1605
     78  C         28.1520    1.9930    0.6240 C.2   200  TYR200      0.2264
     79  O         28.8550    1.0980    1.0880 O.2   200  TYR200     -0.2867
     80  CB        27.7370    1.9160   -1.8420 C.3   200  TYR200      0.0534
     81  CG        27.6620    2.6700   -3.1510 C.ar  200  TYR200     -0.0201
     82  CD1       28.2750    2.1670   -4.3000 C.ar  200  TYR200     -0.0009
     83  CD2       26.9620    3.8750   -3.2480 C.ar  200  TYR200     -0.0009
     84  CE1       28.2010    2.8510   -5.5210 C.ar  200  TYR200      0.0417
     85  CE2       26.8810    4.5690   -4.4590 C.ar  200  TYR200      0.0417
     86  CZ        27.5020    4.0520   -5.5920 C.ar  200  TYR200      0.1957
     87  OH        27.4240    4.7330   -6.7890 O.3   200  TYR200     -0.2866
     88  N         24.3810    0.8800    3.0230 N.3   202  HIS202     -0.1241
     89  CA        22.9220    0.7190    3.0220 C.3   202  HIS202      0.1621
     90  C         22.3180    0.9200    4.4140 C.2   202  HIS202      0.2264
     91  O         22.8020    0.3450    5.3890 O.2   202  HIS202     -0.2867
     92  CB        22.5340   -0.6740    2.5110 C.3   202  HIS202      0.0745
     93  CG        23.3200   -1.1330    1.3200 C.ar  202  HIS202      0.0817
     94  ND1       23.0700   -0.6820    0.0400 N.ar  202  HIS202     -0.2268
     95  CD2       24.3360   -2.0240    1.2130 C.ar  202  HIS202      0.1154
     96  CE1       23.9060   -1.2640   -0.8010 C.ar  202  HIS202      0.1986
     97  NE2       24.6860   -2.0830   -0.1160 N.ar  202  HIS202     -0.2212
     98  N         15.6140  -10.3500   -1.3500 N.3   214  ASP214     -0.1225
     99  CA        16.9990  -10.8430   -1.3340 C.3   214  ASP214      0.1805
    100  C         18.0160   -9.7080   -1.4790 C.2   214  ASP214      0.2597
    101  O         19.0810   -9.8860   -2.0840 O.2   214  ASP214     -0.2718
    102  CB        17.2230  -11.9250   -2.4060 C.3   214  ASP214      0.1424
    103  CG        16.3220  -13.1370   -2.2170 C.2   214  ASP214      0.3668
    104  OD1       16.3170  -13.7200   -1.1090 O.co2 214  ASP214     -0.2456
    105  OD2       15.6270  -13.5110   -3.1840 O.co2 214  ASP214     -0.2456
    106  N         17.6720   -8.5470   -0.9180 N.am  215  PHE215     -0.1976
    107  CA        18.5350   -7.3660   -0.9500 C.3   215  PHE215      0.1639
    108  C         19.3320   -7.1790    0.3370 C.2   215  PHE215      0.2290
    109  O         20.2610   -6.3740    0.3860 O.2   215  PHE215     -0.2864
    110  CB        17.7240   -6.1090   -1.2760 C.3   215  PHE215      0.0560
    111  CG        17.8970   -5.6280   -2.6920 C.ar  215  PHE215     -0.0200
    112  CD1       17.5510   -6.4450   -3.7730 C.ar  215  PHE215     -0.0042
    113  CD2       18.4070   -4.3590   -2.9480 C.ar  215  PHE215     -0.0042
    114  CE1       17.7110   -6.0050   -5.0840 C.ar  215  PHE215     -0.0003
    115  CE2       18.5700   -3.9080   -4.2530 C.ar  215  PHE215     -0.0003
    116  CZ        18.2200   -4.7350   -5.3250 C.ar  215  PHE215     -0.0000
    117  N         16.1250    7.2580   -6.7910 N.3   313  LEU313     -0.1245
    118  CA        16.2700    6.4040   -7.9590 C.3   313  LEU313      0.1561
    119  C         15.8350    4.9980   -7.5430 C.2   313  LEU313      0.2260
    120  O         16.5800    4.3040   -6.8460 O.2   313  LEU313     -0.2867
    121  CB        17.7200    6.4100   -8.4510 C.3   313  LEU313      0.0270
    122  CG        18.0610    5.8830   -9.8510 C.3   313  LEU313      0.0019
    123  CD1       19.5000    6.2330  -10.2160 C.3   313  LEU313      0.0001
    124  CD2       17.8400    4.3820   -9.9650 C.3   313  LEU313      0.0001
    125  N         14.2510    0.9280   -7.9650 N.3   315  PHE315     -0.1241
    126  CA        14.3830   -0.2790   -8.7750 C.3   315  PHE315      0.1605
    127  C         13.0170   -0.8750   -9.0950 C.2   315  PHE315      0.2264
    128  O         12.0620   -0.6970   -8.3390 O.2   315  PHE315     -0.2867
    129  CB        15.2000   -1.3530   -8.0440 C.3   315  PHE315      0.0534
    130  CG        16.6910   -1.1500   -8.0880 C.ar  315  PHE315     -0.0203
    131  CD1       17.5000   -1.7460   -7.1260 C.ar  315  PHE315     -0.0042
    132  CD2       17.2890   -0.3810   -9.0780 C.ar  315  PHE315     -0.0042
    133  CE1       18.8800   -1.5780   -7.1420 C.ar  315  PHE315     -0.0003
    134  CE2       18.6710   -0.2070   -9.1030 C.ar  315  PHE315     -0.0003
    135  CZ        19.4660   -0.8060   -8.1310 C.ar  315  PHE315     -0.0000
    136  N         14.1290    3.3750   -3.4140 N.3   328  ILE328     -0.1245
    137  CA        15.5140    3.6370   -3.0040 C.3   328  ILE328      0.1561
    138  C         15.8460    5.1240   -2.8920 C.2   328  ILE328      0.2260
    139  O         15.7050    5.8830   -3.8570 O.2   328  ILE328     -0.2867
    140  CB        16.5470    2.9770   -3.9530 C.3   328  ILE328      0.0252
    141  CG1       16.2780    1.4810   -4.1080 C.3   328  ILE328      0.0019
    142  CG2       17.9610    3.2010   -3.4390 C.3   328  ILE328      0.0019
    143  CD1       17.1900    0.8070   -5.0990 C.3   328  ILE328      0.0001
    144  N         18.9140    7.9240   -1.9940 N.3   330  TYR330     -0.1241
    145  CA        20.3500    8.1380   -1.9240 C.3   330  TYR330      0.1605
    146  C         20.5730    9.4960   -1.2860 C.2   330  TYR330      0.2264
    147  O         19.9530   10.4770   -1.6950 O.2   330  TYR330     -0.2867
    148  CB        20.9800    8.1370   -3.3190 C.3   330  TYR330      0.0534
    149  CG        20.7660    6.8910   -4.1530 C.ar  330  TYR330     -0.0201
    150  CD1       19.5410    6.6430   -4.7690 C.ar  330  TYR330     -0.0009
    151  CD2       21.8050    5.9870   -4.3690 C.ar  330  TYR330     -0.0009
    152  CE1       19.3450    5.5120   -5.5560 C.ar  330  TYR330      0.0417
    153  CE2       21.6200    4.8490   -5.1570 C.ar  330  TYR330      0.0417
    154  CZ        20.3850    4.6200   -5.7470 C.ar  330  TYR330      0.1957
    155  OH        20.1830    3.5040   -6.5270 O.3   330  TYR330     -0.2866
    156  N         20.9340    5.1730    0.9210 N.3   378  ASN378     -0.1240
    157  CA        22.3650    5.0450    0.6340 C.3   378  ASN378      0.1653
    158  C         23.2090    6.2880    0.9190 C.2   378  ASN378      0.2266
    159  O         22.8510    7.3970    0.5250 O.2   378  ASN378     -0.2867
    160  CB        22.5800    4.5920   -0.8150 C.3   378  ASN378      0.1155
    161  CG        21.9560    3.2360   -1.1100 C.2   378  ASN378      0.2627
    162  OD1       21.4920    2.9910   -2.2210 O.2   378  ASN378     -0.2716
    163  ND2       21.9470    2.3490   -0.1190 N.am  378  ASN378     -0.0877
    164  N         28.6520   -3.2700   -0.0540 N.3   398  ASP398     -0.1239
    165  CA        29.6960   -3.9330   -0.8440 C.3   398  ASP398      0.1674
    166  C         30.0980   -3.2070   -2.1420 C.2   398  ASP398      0.2266
    167  O         30.9650   -3.6880   -2.8820 O.2   398  ASP398     -0.2867
    168  CB        29.2960   -5.3900   -1.1390 C.3   398  ASP398      0.1410
    169  CG        27.9010   -5.5110   -1.7700 C.2   398  ASP398      0.3668
    170  OD1       27.2960   -4.4780   -2.1510 O.co2 398  ASP398     -0.2456
    171  OD2       27.4070   -6.6550   -1.8840 O.co2 398  ASP398     -0.2456
    172  N         33.0230    3.0210   -5.2940 N.3   401  LEU401     -0.1245
    173  CA        32.9480    4.1100   -6.2600 C.3   401  LEU401      0.1561
    174  C         34.2640    4.8870   -6.2890 C.2   401  LEU401      0.2260
    175  O         34.6630    5.4760   -5.2790 O.2   401  LEU401     -0.2867
    176  CB        31.7980    5.0610   -5.9050 C.3   401  LEU401      0.0270
    177  CG        30.8940    5.7000   -6.9720 C.3   401  LEU401      0.0019
    178  CD1       30.5200    7.1170   -6.5550 C.3   401  LEU401      0.0001
    179  CD2       31.5020    5.7140   -8.3600 C.3   401  LEU401      0.0001
    180  N         26.3460   10.6280   -9.6160 N.3   436  LEU436     -0.1245
    181  CA        25.2730    9.6370   -9.7490 C.3   436  LEU436      0.1561
    182  C         25.7760    8.3430  -10.4170 C.2   436  LEU436      0.2260
    183  O         25.0000    7.5190  -10.9180 O.2   436  LEU436     -0.2867
    184  CB        24.0750   10.2270  -10.5170 C.3   436  LEU436      0.0270
    185  CG        23.6460   11.6850  -10.2710 C.3   436  LEU436      0.0019
    186  CD1       22.6500   12.1580  -11.3260 C.3   436  LEU436      0.0001
    187  CD2       23.0790   11.8950   -8.8710 C.3   436  LEU436      0.0001
@<TRIPOS>BOND
     1    55    54    2
     2     1     2    1
     3    54    53    1
     4     2     5    1
     5     2     3    1
     6     7     9   ar
     7     7     6   ar
     8    52    53    1
     9     5     6    1
    10     9    11   ar
    11    53    56    1
    12     6     8   ar
    13     3     4    2
    14    43    42    2
    15    44    45    1
    16    44    41    1
    17    46    48   ar
    18    46    45   ar
    19    11    12    1
    20    11    10   ar
    21    56    57    1
    22    48    50   ar
    23    45    47   ar
    24    42    41    1
    25     8    10   ar
    26    41    40    1
    27    32    31    2
    28    50    51    1
    29    50    49   ar
    30    47    49   ar
    31    58    57    2
    32    57    59   am
    33    33    30    1
    34    33    34    1
    35    71    68    1
    36    31    30    1
    37    29    30    1
    38    13    14    1
    39    35    34   ar
    40    35    37   ar
    41    34    36   ar
    42    63    62    2
    43    60    61    1
    44    21    20    2
    45    68    67    1
    46    68    69    1
    47    37    39   ar
    48    62    67   am
    49    62    61    1
    50    20    19    1
    51    36    38   ar
    52    17    14    1
    53    61    64    1
    54    14    15    1
    55   186   185    1
    56    72    69   am
    57    72    73    1
    58    39    38   ar
    59    69    70    2
    60   183   182    2
    61    18    19    1
    62    19    22    1
    63    74    73    1
    64    74    75    2
    65    65    64    1
    66    15    16    2
    67   184   185    1
    68   184   181    1
    69   182   181    1
    70   185   187    1
    71   123   122    1
    72    64    66    1
    73   124   122    1
    74   122   121    1
    75   181   180    1
    76    26    24   ar
    77    26    28   ar
    78    24    23   ar
    79    28    27   ar
    80    23    22    1
    81    23    25   ar
    82    27    25   ar
    83   134   132   ar
    84   134   135   ar
    85   127   126    1
    86   127   128    2
    87   132   130   ar
    88   126   129    1
    89   126   125    1
    90   121   118    1
    91   179   177    1
    92   135   133   ar
    93   130   129    1
    94   130   131   ar
    95   118   119    1
    96   118   117    1
    97   119   120    2
    98   133   131   ar
    99   177   178    1
   100   177   176    1
   101    87    86    1
   102   155   154    1
   103   174   173    1
   104   174   175    2
   105   173   176    1
   106   173   172    1
   107   154   152   ar
   108   154   153   ar
   109    86    84   ar
   110    86    85   ar
   111   152   150   ar
   112    84    82   ar
   113   116   114   ar
   114   116   115   ar
   115   153   151   ar
   116   143   141    1
   117   114   112   ar
   118   150   149   ar
   119    85    83   ar
   120   151   149   ar
   121    82    81   ar
   122   115   113   ar
   123   149   148    1
   124   141   140    1
   125   140   142    1
   126   140   137    1
   127   139   138    2
   128   112   111   ar
   129   136   137    1
   130   148   145    1
   131    83    81   ar
   132   105   103   ar
   133    81    80    1
   134   137   138    1
   135   113   111   ar
   136   167   166    2
   137   111   110    1
   138   102   103    1
   139   102    99    1
   140   162   161    2
   141   103   104   ar
   142   170   169   ar
   143   166   165    1
   144   101   100    2
   145   144   145    1
   146   145   146    1
   147   171   169   ar
   148    80    77    1
   149   169   168    1
   150   147   146    2
   151   100    99    1
   152   100   106   am
   153    98    99    1
   154   110   107    1
   155   168   165    1
   156   161   160    1
   157   161   163   am
   158    76    77    1
   159   107   106    1
   160   107   108    1
   161   165   164    1
   162   160   157    1
   163    96    97   ar
   164    96    94   ar
   165    77    78    1
   166    97    95   ar
   167    94    93   ar
   168   108   109    2
   169   159   158    2
   170    78    79    2
   171   157   158    1
   172   157   156    1
   173    95    93   ar
   174    93    92    1
   175    92    89    1
   176    89    88    1
   177    89    90    1
   178    90    91    2
