@<TRIPOS>MOLECULE
tmp/2p6gC01.pdb
 204 196 0 0 0
SMALL
GASTEIGER

@<TRIPOS>ATOM
      1  N         16.2370  -26.3750  -25.1770 N.3    83  TYR83      -0.1241
      2  CA        15.7310  -25.4290  -26.1690 C.3    83  TYR83       0.1605
      3  C         15.9300  -23.9690  -25.7730 C.2    83  TYR83       0.2264
      4  O         16.1440  -23.1140  -26.6350 O.2    83  TYR83      -0.2867
      5  CB        14.2600  -25.7110  -26.4750 C.3    83  TYR83       0.0534
      6  CG        13.9510  -25.7570  -27.9530 C.ar   83  TYR83      -0.0201
      7  CD1       14.4270  -26.8000  -28.7490 C.ar   83  TYR83      -0.0009
      8  CD2       13.1810  -24.7670  -28.5590 C.ar   83  TYR83      -0.0009
      9  CE1       14.1490  -26.8510  -30.1100 C.ar   83  TYR83       0.0417
     10  CE2       12.8940  -24.8110  -29.9240 C.ar   83  TYR83       0.0417
     11  CZ        13.3810  -25.8580  -30.6910 C.ar   83  TYR83       0.1957
     12  OH        13.1030  -25.9090  -32.0370 O.3    83  TYR83      -0.2866
     13  N         10.5110  -24.8060  -22.3500 N.3    93  PHE93      -0.1241
     14  CA         9.6390  -25.3560  -23.3860 C.3    93  PHE93       0.1605
     15  C          9.0100  -26.6640  -22.9290 C.2    93  PHE93       0.2264
     16  O          9.6870  -27.5180  -22.3490 O.2    93  PHE93      -0.2867
     17  CB        10.4330  -25.6110  -24.6660 C.3    93  PHE93       0.0534
     18  CG        10.3390  -24.5090  -25.6800 C.ar   93  PHE93      -0.0203
     19  CD1       11.1750  -23.3990  -25.6070 C.ar   93  PHE93      -0.0042
     20  CD2        9.4330  -24.5950  -26.7300 C.ar   93  PHE93      -0.0042
     21  CE1       11.0980  -22.3830  -26.5560 C.ar   93  PHE93      -0.0003
     22  CE2        9.3500  -23.5870  -27.6840 C.ar   93  PHE93      -0.0003
     23  CZ        10.1830  -22.4780  -27.5980 C.ar   93  PHE93      -0.0000
     24  N          7.2440  -29.4520  -24.7420 N.3    95  TYR95      -0.1241
     25  CA         6.8230  -30.3300  -25.8220 C.3    95  TYR95       0.1605
     26  C          6.1900  -31.5930  -25.2340 C.2    95  TYR95       0.2264
     27  O          6.8310  -32.3130  -24.4640 O.2    95  TYR95      -0.2867
     28  CB         8.0260  -30.7150  -26.6870 C.3    95  TYR95       0.0534
     29  CG         8.5460  -29.6300  -27.6100 C.ar   95  TYR95      -0.0201
     30  CD1        9.7320  -28.9520  -27.3240 C.ar   95  TYR95      -0.0009
     31  CD2        7.8660  -29.2990  -28.7800 C.ar   95  TYR95      -0.0009
     32  CE1       10.2200  -27.9640  -28.1770 C.ar   95  TYR95       0.0417
     33  CE2        8.3420  -28.3110  -29.6350 C.ar   95  TYR95       0.0417
     34  CZ         9.5190  -27.6500  -29.3300 C.ar   95  TYR95       0.1957
     35  OH         9.9970  -26.6770  -30.1730 O.3    95  TYR95      -0.2866
     36  N          1.8940  -33.2760  -28.8510 N.3    99  PHE99      -0.1241
     37  CA         2.3980  -32.2880  -29.7930 C.3    99  PHE99       0.1605
     38  C          3.1560  -32.9780  -30.9120 C.2    99  PHE99       0.2264
     39  O          2.8580  -32.7640  -32.0890 O.2    99  PHE99      -0.2867
     40  CB         3.2990  -31.2580  -29.1030 C.3    99  PHE99       0.0534
     41  CG         3.7790  -30.1600  -30.0200 C.ar   99  PHE99      -0.0203
     42  CD1        2.9820  -29.0450  -30.2680 C.ar   99  PHE99      -0.0042
     43  CD2        5.0240  -30.2410  -30.6340 C.ar   99  PHE99      -0.0042
     44  CE1        3.4160  -28.0270  -31.1140 C.ar   99  PHE99      -0.0003
     45  CE2        5.4680  -29.2300  -31.4820 C.ar   99  PHE99      -0.0003
     46  CZ         4.6620  -28.1190  -31.7220 C.ar   99  PHE99      -0.0000
     47  N         12.9360  -29.1090  -38.8830 N.3   149  ASN149     -0.1225
     48  CA        12.6100  -28.5030  -37.5900 C.3   149  ASN149      0.1785
     49  C         13.1540  -29.2600  -36.3740 C.2   149  ASN149      0.2597
     50  O         13.5940  -30.4070  -36.4890 O.2   149  ASN149     -0.2718
     51  CB        11.0920  -28.3230  -37.4610 C.3   149  ASN149      0.1169
     52  CG        10.7150  -27.0560  -36.7190 C.2   149  ASN149      0.2627
     53  OD1       11.2450  -26.7670  -35.6450 O.2   149  ASN149     -0.2716
     54  ND2        9.7890  -26.2940  -37.2890 N.am  149  ASN149     -0.0877
     55  N         13.1160  -28.5910  -35.2200 N.am  150  PHE150     -0.1976
     56  CA        13.5210  -29.1460  -33.9210 C.3   150  PHE150      0.1639
     57  C         14.9960  -29.5490  -33.8410 C.2   150  PHE150      0.2290
     58  O         15.3430  -30.5530  -33.2120 O.2   150  PHE150     -0.2864
     59  CB        12.6080  -30.3110  -33.4990 C.3   150  PHE150      0.0560
     60  CG        11.1400  -30.0160  -33.6440 C.ar  150  PHE150     -0.0200
     61  CD1       10.4940  -29.1570  -32.7590 C.ar  150  PHE150     -0.0042
     62  CD2       10.4010  -30.6030  -34.6650 C.ar  150  PHE150     -0.0042
     63  CE1        9.1370  -28.8830  -32.8950 C.ar  150  PHE150     -0.0003
     64  CE2        9.0430  -30.3360  -34.8070 C.ar  150  PHE150     -0.0003
     65  CZ         8.4100  -29.4730  -33.9190 C.ar  150  PHE150     -0.0000
     66  N          7.3380  -11.5660  -34.6260 N.3   199  TYR199     -0.1241
     67  CA         6.2580  -12.0480  -33.7560 C.3   199  TYR199      0.1605
     68  C          5.4700  -10.9100  -33.1020 C.2   199  TYR199      0.2264
     69  O          5.9240   -9.7640  -33.0660 O.2   199  TYR199     -0.2867
     70  CB         6.8060  -12.9380  -32.6390 C.3   199  TYR199      0.0534
     71  CG         7.4590  -14.2290  -33.0670 C.ar  199  TYR199     -0.0201
     72  CD1        8.8310  -14.2880  -33.2990 C.ar  199  TYR199     -0.0009
     73  CD2        6.7160  -15.4040  -33.1950 C.ar  199  TYR199     -0.0009
     74  CE1        9.4500  -15.4770  -33.6680 C.ar  199  TYR199      0.0417
     75  CE2        7.3250  -16.6020  -33.5650 C.ar  199  TYR199      0.0417
     76  CZ         8.6930  -16.6290  -33.8000 C.ar  199  TYR199      0.1957
     77  OH         9.3090  -17.8030  -34.1700 O.3   199  TYR199     -0.2866
     78  N          2.1690  -10.7620  -29.6720 N.3   201  HIS201     -0.1241
     79  CA         1.3650  -11.5250  -28.7070 C.3   201  HIS201      0.1621
     80  C          0.1200  -10.7590  -28.2700 C.2   201  HIS201      0.2264
     81  O          0.1860   -9.5560  -28.0000 O.2   201  HIS201     -0.2867
     82  CB         2.1810  -11.8730  -27.4600 C.3   201  HIS201      0.0745
     83  CG         3.6590  -11.7400  -27.6420 C.ar  201  HIS201      0.0817
     84  ND1        4.4220  -12.6940  -28.2820 N.ar  201  HIS201     -0.2268
     85  CD2        4.5160  -10.7590  -27.2710 C.ar  201  HIS201      0.1154
     86  CE1        5.6850  -12.3070  -28.2960 C.ar  201  HIS201      0.1986
     87  NE2        5.7690  -11.1360  -27.6890 N.ar  201  HIS201     -0.2212
     88  N          0.4830  -13.3590  -17.1040 N.3   209  LEU209     -0.1245
     89  CA         1.5630  -12.9380  -18.0030 C.3   209  LEU209      0.1561
     90  C          2.5150  -11.9340  -17.3600 C.2   209  LEU209      0.2260
     91  O          3.7230  -11.9640  -17.6080 O.2   209  LEU209     -0.2867
     92  CB         0.9940  -12.3440  -19.2940 C.3   209  LEU209      0.0270
     93  CG         0.6570  -13.2850  -20.4530 C.3   209  LEU209      0.0019
     94  CD1        0.1190  -12.4770  -21.6230 C.3   209  LEU209      0.0001
     95  CD2        1.8730  -14.0950  -20.8810 C.3   209  LEU209      0.0001
     96  N          6.3760  -11.9880  -18.2100 N.3   214  PHE214     -0.1241
     97  CA         6.3860  -11.9680  -19.6690 C.3   214  PHE214      0.1605
     98  C          5.8650  -10.6460  -20.2410 C.2   214  PHE214      0.2264
     99  O          5.9480  -10.4100  -21.4470 O.2   214  PHE214     -0.2867
    100  CB         5.6410  -13.1750  -20.2520 C.3   214  PHE214      0.0534
    101  CG         6.5110  -14.3910  -20.4310 C.ar  214  PHE214     -0.0203
    102  CD1        7.5570  -14.3880  -21.3530 C.ar  214  PHE214     -0.0042
    103  CD2        6.2900  -15.5370  -19.6800 C.ar  214  PHE214     -0.0042
    104  CE1        8.3660  -15.5120  -21.5220 C.ar  214  PHE214     -0.0003
    105  CE2        7.0930  -16.6630  -19.8390 C.ar  214  PHE214     -0.0003
    106  CZ         8.1300  -16.6520  -20.7620 C.ar  214  PHE214     -0.0000
    107  N         -2.5390  -23.5730  -32.7330 N.3   310  TYR310     -0.1241
    108  CA        -2.0400  -24.7470  -32.0050 C.3   310  TYR310      0.1605
    109  C         -1.4330  -24.4360  -30.6290 C.2   310  TYR310      0.2264
    110  O         -0.9630  -23.3200  -30.3850 O.2   310  TYR310     -0.2867
    111  CB        -1.0570  -25.5440  -32.8690 C.3   310  TYR310      0.0534
    112  CG         0.2200  -24.8090  -33.1840 C.ar  310  TYR310     -0.0201
    113  CD1        1.3140  -24.8850  -32.3280 C.ar  310  TYR310     -0.0009
    114  CD2        0.3390  -24.0410  -34.3390 C.ar  310  TYR310     -0.0009
    115  CE1        2.4910  -24.2130  -32.6060 C.ar  310  TYR310      0.0417
    116  CE2        1.5150  -23.3630  -34.6270 C.ar  310  TYR310      0.0417
    117  CZ         2.5870  -23.4570  -33.7540 C.ar  310  TYR310      0.1957
    118  OH         3.7580  -22.7910  -34.0260 O.3   310  TYR310     -0.2866
    119  N          1.2840  -25.0160  -27.6600 N.3   312  LEU312     -0.1245
    120  CA         2.6360  -25.4240  -27.2830 C.3   312  LEU312      0.1561
    121  C          3.1230  -24.5780  -26.0930 C.2   312  LEU312      0.2260
    122  O          3.6540  -23.4800  -26.2820 O.2   312  LEU312     -0.2867
    123  CB         3.5730  -25.3090  -28.4960 C.3   312  LEU312      0.0270
    124  CG         5.0250  -25.8130  -28.4940 C.3   312  LEU312      0.0019
    125  CD1        5.9940  -24.7070  -28.0970 C.3   312  LEU312      0.0001
    126  CD2        5.2220  -27.0580  -27.6200 C.3   312  LEU312      0.0001
    127  N          4.7950  -23.4020  -22.1010 N.3   314  PHE314     -0.1241
    128  CA         6.0430  -23.3640  -21.3310 C.3   314  PHE314      0.1605
    129  C          5.7840  -23.7920  -19.8950 C.2   314  PHE314      0.2264
    130  O          4.8100  -23.3550  -19.2810 O.2   314  PHE314     -0.2867
    131  CB         6.6540  -21.9540  -21.2870 C.3   314  PHE314      0.0534
    132  CG         7.1560  -21.4400  -22.6100 C.ar  314  PHE314     -0.0203
    133  CD1        7.2990  -20.0710  -22.8120 C.ar  314  PHE314     -0.0042
    134  CD2        7.4880  -22.3050  -23.6490 C.ar  314  PHE314     -0.0042
    135  CE1        7.7630  -19.5690  -24.0250 C.ar  314  PHE314     -0.0003
    136  CE2        7.9480  -21.8120  -24.8660 C.ar  314  PHE314     -0.0003
    137  CZ         8.0860  -20.4410  -25.0520 C.ar  314  PHE314     -0.0000
    138  N          2.5060  -22.0910  -18.4920 N.3   325  LEU325     -0.1245
    139  CA         1.9500  -21.0050  -19.2820 C.3   325  LEU325      0.1561
    140  C          1.4020  -21.5850  -20.5720 C.2   325  LEU325      0.2260
    141  O          2.1660  -22.0280  -21.4270 O.2   325  LEU325     -0.2867
    142  CB         3.0260  -19.9610  -19.5970 C.3   325  LEU325      0.0270
    143  CG         2.6750  -18.7330  -20.4440 C.3   325  LEU325      0.0019
    144  CD1        1.9030  -17.7100  -19.6390 C.3   325  LEU325      0.0001
    145  CD2        3.9360  -18.1060  -21.0110 C.3   325  LEU325      0.0001
    146  N          0.2040  -21.4730  -24.1580 N.3   327  ILE327     -0.1245
    147  CA         0.4890  -20.5990  -25.3000 C.3   327  ILE327      0.1561
    148  C         -0.2390  -21.0850  -26.5520 C.2   327  ILE327      0.2260
    149  O         -0.2650  -22.2840  -26.8380 O.2   327  ILE327     -0.2867
    150  CB         2.0060  -20.5030  -25.6130 C.3   327  ILE327      0.0252
    151  CG1        2.8350  -20.3910  -24.3340 C.3   327  ILE327      0.0019
    152  CG2        2.2890  -19.3120  -26.5270 C.3   327  ILE327      0.0019
    153  CD1        4.3060  -20.6630  -24.5430 C.3   327  ILE327      0.0001
    154  N         -0.3580  -20.4190  -30.6980 N.3   329  TYR329     -0.1241
    155  CA         0.1990  -19.8140  -31.9030 C.3   329  TYR329      0.1605
    156  C         -0.8270  -19.9230  -33.0300 C.2   329  TYR329      0.2264
    157  O         -1.2970  -21.0230  -33.3360 O.2   329  TYR329     -0.2867
    158  CB         1.4980  -20.5150  -32.3230 C.3   329  TYR329      0.0534
    159  CG         2.5870  -20.5810  -31.2670 C.ar  329  TYR329     -0.0201
    160  CD1        2.4930  -21.4720  -30.1940 C.ar  329  TYR329     -0.0009
    161  CD2        3.7270  -19.7780  -31.3580 C.ar  329  TYR329     -0.0009
    162  CE1        3.4920  -21.5450  -29.2260 C.ar  329  TYR329      0.0417
    163  CE2        4.7350  -19.8440  -30.3950 C.ar  329  TYR329      0.0417
    164  CZ         4.6100  -20.7320  -29.3320 C.ar  329  TYR329      0.1957
    165  OH         5.5930  -20.8160  -28.3710 O.3   329  TYR329     -0.2866
    166  N         -1.8540  -16.4840  -23.6690 N.3   375  VAL375     -0.1245
    167  CA        -1.2790  -15.5910  -24.6710 C.3   375  VAL375      0.1561
    168  C         -1.4190  -16.1940  -26.0710 C.2   375  VAL375      0.2260
    169  O         -1.2880  -17.4080  -26.2470 O.2   375  VAL375     -0.2867
    170  CB         0.2080  -15.2370  -24.3310 C.3   375  VAL375      0.0252
    171  CG1        1.0460  -16.4960  -24.1030 C.3   375  VAL375      0.0019
    172  CG2        0.8310  -14.3550  -25.3980 C.3   375  VAL375      0.0019
    173  N         -0.0150  -16.0350  -29.9110 N.3   377  ASN377     -0.1240
    174  CA         1.0640  -15.6160  -30.8060 C.3   377  ASN377      0.1653
    175  C          0.6920  -15.6400  -32.2880 C.2   377  ASN377      0.2266
    176  O          0.2640  -16.6680  -32.8170 O.2   377  ASN377     -0.2867
    177  CB         2.3170  -16.4690  -30.5810 C.3   377  ASN377      0.1155
    178  CG         2.9600  -16.2310  -29.2280 C.2   377  ASN377      0.2627
    179  OD1        3.6190  -17.1160  -28.6860 O.2   377  ASN377     -0.2716
    180  ND2        2.7740  -15.0370  -28.6770 N.am  377  ASN377     -0.0877
    181  N          6.4330   -7.5960  -30.5630 N.3   396  GLY396     -0.1210
    182  CA         7.1910   -8.7640  -30.1280 C.3   396  GLY396      0.1956
    183  C          8.5920   -8.6680  -30.6820 C.2   396  GLY396      0.2612
    184  O          8.7870   -8.6990  -31.8980 O.2   396  GLY396     -0.2717
    185  N          9.5670   -8.5580  -29.7850 N.am  397  ASP397     -0.1959
    186  CA        10.9520   -8.2550  -30.1590 C.3   397  ASP397      0.1840
    187  C         11.6400   -9.2730  -31.0840 C.2   397  ASP397      0.2622
    188  O         12.4450   -8.8870  -31.9320 O.2   397  ASP397     -0.2715
    189  CB        11.8040   -7.9850  -28.9070 C.3   397  ASP397      0.1450
    190  CG        11.8220   -9.1570  -27.9270 C.2   397  ASP397      0.3671
    191  OD1       11.0170  -10.1040  -28.0780 O.co2 397  ASP397     -0.2456
    192  OD2       12.6500   -9.1200  -26.9890 O.co2 397  ASP397     -0.2456
    193  N         11.3180  -10.5560  -30.9280 N.am  398  GLY398     -0.1954
    194  CA        11.9470  -11.6170  -31.7230 C.3   398  GLY398      0.1869
    195  C         11.4930  -11.6750  -33.1700 C.2   398  GLY398      0.2309
    196  O         10.3850  -11.2470  -33.5030 O.2   398  GLY398     -0.2863
    197  N          6.3190  -24.4730  -37.6710 N.3   435  LEU435     -0.1245
    198  CA         6.1740  -24.8940  -36.2820 C.3   435  LEU435      0.1561
    199  C          7.2960  -24.3440  -35.4030 C.2   435  LEU435      0.2260
    200  O          7.0460  -23.9520  -34.2620 O.2   435  LEU435     -0.2867
    201  CB         6.1210  -26.4240  -36.2000 C.3   435  LEU435      0.0270
    202  CG         5.0730  -27.0920  -37.1000 C.3   435  LEU435      0.0019
    203  CD1        5.4490  -28.5250  -37.4490 C.3   435  LEU435      0.0001
    204  CD2        3.6880  -27.0220  -36.4780 C.3   435  LEU435      0.0001
@<TRIPOS>BOND
     1    47    48    1
     2   197   198    1
     3    48    51    1
     4    48    49    1
     5    51    52    1
     6   203   202    1
     7    54    52   am
     8   202   204    1
     9   202   201    1
    10    52    53    2
    11    50    49    2
    12    49    55   am
    13   198   201    1
    14   198   199    1
    15   199   200    2
    16    55    56    1
    17    64    62   ar
    18    64    65   ar
    19    62    60   ar
    20   116   114   ar
    21   116   117   ar
    22    66    67    1
    23   114   112   ar
    24    77    76    1
    25   118   117    1
    26    56    57    1
    27    56    59    1
    28    65    63   ar
    29    57    58    2
    30    76    74   ar
    31    76    75   ar
    32    67    68    1
    33    67    70    1
    34   117   115   ar
    35    74    72   ar
    36    60    59    1
    37    60    61   ar
    38    75    73   ar
    39   196   195    2
    40   157   156    2
    41    72    71   ar
    42    73    71   ar
    43   112   111    1
    44   112   113   ar
    45   195   194    1
    46    68    69    2
    47    71    70    1
    48   156   155    1
    49    63    61   ar
    50   111   108    1
    51   176   175    2
    52   107   108    1
    53   115   113   ar
    54   158   155    1
    55   158   159    1
    56   175   174    1
    57    39    38    2
    58    12    11    1
    59   108   109    1
    60   188   187    2
    61   155   154    1
    62   184   183    2
    63   194   193    1
    64    46    45   ar
    65    46    44   ar
    66    45    43   ar
    67   161   159   ar
    68   161   163   ar
    69   159   160   ar
    70    44    42   ar
    71   187   193   am
    72   187   186    1
    73    38    37    1
    74   174   177    1
    75   174   173    1
    76    11     9   ar
    77    11    10   ar
    78   183   182    1
    79   183   185   am
    80    43    41   ar
    81   109   110    2
    82   177   178    1
    83   181   182    1
    84   163   164   ar
    85    42    41   ar
    86   160   162   ar
    87    35    34    1
    88   186   185    1
    89   186   189    1
    90     9     7   ar
    91    41    40    1
    92    10     8   ar
    93    37    40    1
    94    37    36    1
    95    78    79    1
    96    33    34   ar
    97    33    31   ar
    98   164   162   ar
    99   164   165    1
   100    34    32   ar
   101   178   179    2
   102   178   180   am
   103   189   190    1
   104    31    29   ar
   105     7     6   ar
   106    79    80    1
   107    79    82    1
   108     8     6   ar
   109   123   124    1
   110   123   120    1
   111   124   125    1
   112   124   126    1
   113    86    84   ar
   114    86    87   ar
   115    84    83   ar
   116    80    81    2
   117    32    30   ar
   118   191   190   ar
   119     6     5    1
   120   190   192   ar
   121    87    85   ar
   122    22    23   ar
   123    22    20   ar
   124   119   120    1
   125    83    82    1
   126    83    85   ar
   127    29    30   ar
   128    29    28    1
   129    23    21   ar
   130   120   121    1
   131   149   148    2
   132    20    18   ar
   133    28    25    1
   134     4     3    2
   135    21    19   ar
   136   148   147    1
   137   152   150    1
   138     5     2    1
   139   122   121    2
   140   169   168    2
   141     2     3    1
   142     2     1    1
   143   168   167    1
   144    25    26    1
   145    25    24    1
   146    18    19   ar
   147    18    17    1
   148   150   147    1
   149   150   151    1
   150   172   170    1
   151   147   146    1
   152    26    27    2
   153   137   136   ar
   154   137   135   ar
   155   136   134   ar
   156   167   170    1
   157   167   166    1
   158    17    14    1
   159   153   151    1
   160   170   171    1
   161   135   133   ar
   162   134   132   ar
   163    14    15    1
   164    14    13    1
   165    15    16    2
   166   133   132   ar
   167   132   131    1
   168   127   128    1
   169    94    93    1
   170   104   102   ar
   171   104   106   ar
   172    99    98    2
   173   141   140    2
   174   102   101   ar
   175   128   131    1
   176   128   129    1
   177   145   143    1
   178    95    93    1
   179   106   105   ar
   180   140   139    1
   181    93    92    1
   182   143   144    1
   183   143   142    1
   184   101   100    1
   185   101   103   ar
   186   100    97    1
   187    98    97    1
   188   129   130    2
   189   105   103   ar
   190    97    96    1
   191   142   139    1
   192    92    89    1
   193   139   138    1
   194    89    90    1
   195    89    88    1
   196    91    90    2
