@<TRIPOS>MOLECULE
tmp/2p6wA00.pdb
 107 99 0 0 0
SMALL
GASTEIGER

@<TRIPOS>ATOM
      1  N         27.9640   11.6300   -5.7750 N.3    51  HIS51      -0.1241
      2  CA        29.1350   11.6960   -4.9080 C.3    51  HIS51       0.1621
      3  C         29.4940   13.1560   -4.5870 C.2    51  HIS51       0.2264
      4  O         29.8210   13.4900   -3.4380 O.2    51  HIS51      -0.2867
      5  CB        30.3170   10.9850   -5.5440 C.3    51  HIS51       0.0745
      6  CG        31.4560   10.8000   -4.6020 C.ar   51  HIS51       0.0817
      7  ND1       32.3840   11.7930   -4.3520 N.ar   51  HIS51      -0.2268
      8  CD2       31.7890    9.7570   -3.8040 C.ar   51  HIS51       0.1154
      9  CE1       33.2620   11.3540   -3.4680 C.ar   51  HIS51       0.1986
     10  NE2       32.9220   10.1230   -3.1120 N.ar   51  HIS51      -0.2212
     11  N         27.8360   16.1880   -1.5700 N.3    54  ARG54      -0.1245
     12  CA        28.3300   16.6500   -0.2630 C.3    54  ARG54       0.1563
     13  C         28.8770   18.0960   -0.3040 C.2    54  ARG54       0.2260
     14  O         28.7530   18.8430    0.6700 O.2    54  ARG54      -0.2867
     15  CB        29.3950   15.7010    0.2580 C.3    54  ARG54       0.0307
     16  CG        30.6300   15.6560   -0.5890 C.3    54  ARG54       0.0489
     17  CD        31.4750   14.4270   -0.2220 C.3    54  ARG54       0.2205
     18  NE        30.8410   13.2380   -0.7750 N.pl3  54  ARG54      -0.0865
     19  CZ        31.1260   11.9940   -0.4110 C.cat  54  ARG54       0.5346
     20  NH1       32.0390   11.7710    0.5230 N.pl3  54  ARG54       0.1354
     21  NH2       30.4820   10.9750   -0.9760 N.pl3  54  ARG54       0.1354
     22  N         29.3040   10.4040    5.3930 N.3    75  ASP75      -0.1239
     23  CA        28.4450    9.6220    4.4800 C.3    75  ASP75       0.1674
     24  C         27.2760    9.0610    5.2790 C.2    75  ASP75       0.2266
     25  O         27.4050    8.8110    6.4830 O.2    75  ASP75      -0.2867
     26  CB        29.1930    8.4180    3.8970 C.3    75  ASP75       0.1410
     27  CG        30.1470    8.7850    2.7750 C.2    75  ASP75       0.3668
     28  OD1       30.2590    9.9810    2.4300 O.co2  75  ASP75      -0.2456
     29  OD2       30.7890    7.8510    2.2420 O.co2  75  ASP75      -0.2456
     30  N         26.4300    6.1890    5.2250 N.3    77  ASP77      -0.1239
     31  CA        26.8440    4.8420    5.6090 C.3    77  ASP77       0.1674
     32  C         27.9150    4.8870    6.7340 C.2    77  ASP77       0.2266
     33  O         28.5970    3.9010    7.0090 O.2    77  ASP77      -0.2867
     34  CB        27.3050    4.0660    4.3890 C.3    77  ASP77       0.1410
     35  CG        28.1480    4.9050    3.4420 C.2    77  ASP77       0.3668
     36  OD1       27.5890    5.4560    2.4600 O.co2  77  ASP77      -0.2456
     37  OD2       29.3630    5.0230    3.6720 O.co2  77  ASP77      -0.2456
     38  N         40.0890    8.7430    1.9270 N.3   116  ASN116     -0.1240
     39  CA        38.6890    8.3590    1.8410 C.3   116  ASN116      0.1653
     40  C         37.8540    9.4740    2.4570 C.2   116  ASN116      0.2266
     41  O         37.9590    9.7320    3.6620 O.2   116  ASN116     -0.2867
     42  CB        38.4810    7.0380    2.5770 C.3   116  ASN116      0.1155
     43  CG        37.0510    6.5780    2.5410 C.2   116  ASN116      0.2627
     44  OD1       36.1490    7.2530    3.0560 O.2   116  ASN116     -0.2716
     45  ND2       36.8320    5.3830    1.9900 N.am  116  ASN116     -0.0877
     46  N         34.6780    9.8020    3.0010 N.3   118  GLY118     -0.1225
     47  CA        33.4250    9.4330    3.6700 C.3   118  GLY118      0.1811
     48  C         33.2840   10.1550    5.0070 C.2   118  GLY118      0.2280
     49  O         32.1780   10.3010    5.5410 O.2   118  GLY118     -0.2866
     50  N         35.5180    8.6470  -11.4440 N.3   145  PHE145     -0.1241
     51  CA        35.7490    8.0310  -10.1390 C.3   145  PHE145      0.1605
     52  C         37.1860    8.2480   -9.6480 C.2   145  PHE145      0.2264
     53  O         38.1370    8.1210  -10.4460 O.2   145  PHE145     -0.2867
     54  CB        35.4600    6.5310  -10.2760 C.3   145  PHE145      0.0534
     55  CG        35.6220    5.7550   -9.0130 C.ar  145  PHE145     -0.0203
     56  CD1       34.5460    5.5820   -8.1480 C.ar  145  PHE145     -0.0042
     57  CD2       36.8450    5.1720   -8.6910 C.ar  145  PHE145     -0.0042
     58  CE1       34.6900    4.8480   -6.9730 C.ar  145  PHE145     -0.0003
     59  CE2       36.9940    4.4320   -7.5200 C.ar  145  PHE145     -0.0003
     60  CZ        35.9220    4.2770   -6.6590 C.ar  145  PHE145     -0.0000
     61  N         36.2960   12.8660   -4.1390 N.3   149  GLN149     -0.1245
     62  CA        37.4540   12.3730   -3.4010 C.3   149  GLN149      0.1566
     63  C         38.7470   12.6600   -4.1660 C.2   149  GLN149      0.2260
     64  O         39.7560   13.0810   -3.5930 O.2   149  GLN149     -0.2867
     65  CB        37.2740   10.8760   -3.1810 C.3   149  GLN149      0.0367
     66  CG        38.3560   10.2200   -2.3800 C.3   149  GLN149      0.0905
     67  CD        37.9480    8.8170   -1.9890 C.2   149  GLN149      0.2608
     68  OE1       37.1790    8.6260   -1.0500 O.2   149  GLN149     -0.2717
     69  NE2       38.4690    7.8240   -2.7020 N.am  149  GLN149     -0.0878
     70  N         32.6520    3.2160    9.3950 N.3   190  HIS190     -0.1241
     71  CA        32.2650    3.5040    8.0240 C.3   190  HIS190      0.1621
     72  C         31.9450    2.2040    7.2650 C.2   190  HIS190      0.2264
     73  O         32.8180    1.3820    7.0470 O.2   190  HIS190     -0.2867
     74  CB        33.3820    4.3080    7.3490 C.3   190  HIS190      0.0745
     75  CG        33.0990    4.7020    5.9320 C.ar  190  HIS190      0.0817
     76  ND1       34.0250    5.3710    5.1520 N.ar  190  HIS190     -0.2268
     77  CD2       31.9970    4.5380    5.1540 C.ar  190  HIS190      0.1154
     78  CE1       33.5020    5.6000    3.9560 C.ar  190  HIS190      0.1986
     79  NE2       32.2770    5.0980    3.9280 N.ar  190  HIS190     -0.2212
     80  N         31.7910    1.1030    4.3460 N.3   192  CYS192     -0.1221
     81  CA        32.1880    1.4720    2.9970 C.3   192  CYS192      0.1808
     82  C         32.1040    0.2960    2.0270 C.2   192  CYS192      0.2602
     83  O         32.5220   -0.8140    2.3610 O.2   192  CYS192     -0.2717
     84  CB        33.6130    2.0050    3.0560 C.3   192  CYS192      0.0970
     85  SG        34.2150    2.7460    1.5480 S.3   192  CYS192     -0.0800
     86  N         31.5230    0.5370    0.8490 N.am  193  GLY193     -0.1942
     87  CA        31.5730   -0.4260   -0.2590 C.3   193  GLY193      0.2014
     88  C         30.5750   -1.5620   -0.2020 C.2   193  GLY193      0.2639
     89  O         30.5780   -2.4420   -1.0780 O.2   193  GLY193     -0.2714
     90  N         29.6960   -1.5350    0.7900 N.am  194  THR194     -0.1950
     91  CA        28.7360   -2.6260    0.9770 C.3   194  THR194      0.1897
     92  C         27.3570   -2.2320    0.4500 C.2   194  THR194      0.2313
     93  O         27.1000   -1.0570    0.1810 O.2   194  THR194     -0.2863
     94  CB        28.6520   -3.0220    2.4600 C.3   194  THR194      0.1794
     95  OG1       28.3520   -1.8600    3.2340 O.3   194  THR194     -0.2208
     96  CG2       30.0050   -3.5750    2.9330 C.3   194  THR194      0.0378
     97  N         24.1730   -3.3030    4.7700 N.3   199  ARG199     -0.1245
     98  CA        24.1440   -2.2040    5.7350 C.3   199  ARG199      0.1563
     99  C         22.9590   -2.2350    6.7110 C.2   199  ARG199      0.2260
    100  O         23.1280   -1.9270    7.9010 O.2   199  ARG199     -0.2867
    101  CB        24.1680   -0.8830    4.9660 C.3   199  ARG199      0.0307
    102  CG        25.5070   -0.6530    4.2910 C.3   199  ARG199      0.0489
    103  CD        25.4840    0.5260    3.3380 C.3   199  ARG199      0.2205
    104  NE        26.8190    0.8590    2.8430 N.pl3 199  ARG199     -0.0865
    105  CZ        27.0540    1.7000    1.8340 C.cat 199  ARG199      0.5346
    106  NH1       26.0480    2.3180    1.2150 N.pl3 199  ARG199      0.1354
    107  NH2       28.3020    1.9460    1.4570 N.pl3 199  ARG199      0.1354
@<TRIPOS>BOND
     1    50    51    1
     2    53    52    2
     3    54    51    1
     4    54    55    1
     5    51    52    1
     6    55    57   ar
     7    55    56   ar
     8    57    59   ar
     9    56    58   ar
    10    59    60   ar
    11    58    60   ar
    12     1     2    1
    13     5     2    1
    14     5     6    1
    15     2     3    1
    16     6     7   ar
    17     6     8   ar
    18     3     4    2
    19     7     9   ar
    20    63    64    2
    21    63    62    1
    22    61    62    1
    23     8    10   ar
    24     9    10   ar
    25    62    65    1
    26    65    66    1
    27    69    67   am
    28    66    67    1
    29    67    68    2
    30    11    12    1
    31    89    88    2
    32    21    19    1
    33    18    19    2
    34    18    17    1
    35    16    17    1
    36    16    15    1
    37    19    20    1
    38    13    12    1
    39    13    14    2
    40    12    15    1
    41    87    88    1
    42    87    86    1
    43    88    90   am
    44    93    92    2
    45    92    91    1
    46    90    91    1
    47    86    82   am
    48    91    94    1
    49   106   105    1
    50   107   105    1
    51    85    84    1
    52   105   104    2
    53    39    38    1
    54    39    40    1
    55    39    42    1
    56    45    43   am
    57    82    83    2
    58    82    81    1
    59    29    27   ar
    60    28    27   ar
    61    40    41    2
    62    94    96    1
    63    94    95    1
    64    36    35   ar
    65    43    42    1
    66    43    44    2
    67    27    26    1
    68   104   103    1
    69    81    84    1
    70    81    80    1
    71    46    47    1
    72   103   102    1
    73    35    37   ar
    74    35    34    1
    75    47    48    1
    76    26    23    1
    77    79    78   ar
    78    79    77   ar
    79    78    76   ar
    80   102   101    1
    81    34    31    1
    82    23    24    1
    83    23    22    1
    84    97    98    1
    85   101    98    1
    86    48    49    2
    87    76    75   ar
    88    77    75   ar
    89    30    31    1
    90    24    25    2
    91    31    32    1
    92    98    99    1
    93    75    74    1
    94    99   100    2
    95    32    33    2
    96    73    72    2
    97    72    71    1
    98    74    71    1
    99    71    70    1
