@<TRIPOS>MOLECULE
tmp/2p70A00.pdb
 129 121 0 0 0
SMALL
GASTEIGER

@<TRIPOS>ATOM
      1  N         69.4850   44.8000   -0.8360 N.3    12  PHE12      -0.1241
      2  CA        68.5880   44.5600    0.2910 C.3    12  PHE12       0.1605
      3  C         69.2490   43.5830    1.2460 C.2    12  PHE12       0.2264
      4  O         69.1020   43.7020    2.4340 O.2    12  PHE12      -0.2867
      5  CB        67.3070   44.0020   -0.2490 C.3    12  PHE12       0.0534
      6  CG        66.3050   43.6500    0.7570 C.ar   12  PHE12      -0.0203
      7  CD1       65.4040   44.6300    1.2190 C.ar   12  PHE12      -0.0042
      8  CD2       66.2410   42.3530    1.2940 C.ar   12  PHE12      -0.0042
      9  CE1       64.4130   44.2950    2.0680 C.ar   12  PHE12      -0.0003
     10  CE2       65.2080   42.0230    2.2130 C.ar   12  PHE12      -0.0003
     11  CZ        64.2900   42.9750    2.5680 C.ar   12  PHE12      -0.0000
     12  N         66.0780   32.4660   -3.3360 N.3    36  PHE36      -0.1241
     13  CA        64.8250   33.2690   -3.3430 C.3    36  PHE36       0.1605
     14  C         64.1590   33.4280   -4.7010 C.2    36  PHE36       0.2264
     15  O         62.9230   33.2500   -4.7940 O.2    36  PHE36      -0.2867
     16  CB        65.0210   34.6600   -2.8000 C.3    36  PHE36       0.0534
     17  CG        63.7240   35.3990   -2.6140 C.ar   36  PHE36      -0.0203
     18  CD1       63.0150   35.2630   -1.4280 C.ar   36  PHE36      -0.0042
     19  CD2       63.2650   36.2350   -3.5350 C.ar   36  PHE36      -0.0042
     20  CE1       61.7700   35.9420   -1.2550 C.ar   36  PHE36      -0.0003
     21  CE2       62.1310   37.0340   -3.3570 C.ar   36  PHE36      -0.0003
     22  CZ        61.3310   36.8360   -2.2310 C.ar   36  PHE36      -0.0000
     23  N         63.8040   39.0300    6.6490 N.3    52  ILE52      -0.1245
     24  CA        63.2940   40.0750    5.7400 C.3    52  ILE52       0.1561
     25  C         62.7490   41.2840    6.4470 C.2    52  ILE52       0.2260
     26  O         63.0450   42.3840    6.1580 O.2    52  ILE52      -0.2867
     27  CB        62.1820   39.5030    4.8450 C.3    52  ILE52       0.0252
     28  CG1       62.6830   38.3730    3.9280 C.3    52  ILE52       0.0019
     29  CG2       61.4000   40.6910    4.0260 C.3    52  ILE52       0.0019
     30  CD1       63.9110   38.6760    3.2200 C.3    52  ILE52       0.0001
     31  N         64.2560   44.9310    6.0850 N.3    56  SER56      -0.1217
     32  CA        63.4390   46.0730    5.6050 C.3    56  SER56       0.1889
     33  C         63.3950   47.2430    6.6090 C.2    56  SER56       0.2288
     34  O         63.4480   48.4620    6.2710 O.2    56  SER56      -0.2866
     35  CB        61.9930   45.6280    5.1970 C.3    56  SER56       0.2089
     36  OG        62.1030   44.6170    4.2620 O.3    56  SER56      -0.2183
     37  N         62.0980   50.9760    5.4650 N.3    61  MET61      -0.1230
     38  CA        61.0370   50.7070    4.5730 C.3    61  MET61       0.1702
     39  C         59.8500   50.1310    5.2800 C.2    61  MET61       0.2592
     40  O         58.9650   49.8570    4.5990 O.2    61  MET61      -0.2718
     41  CB        61.5000   49.6370    3.5520 C.3    61  MET61       0.0401
     42  CG        62.3650   50.2660    2.5540 C.3    61  MET61       0.0596
     43  SD        62.9430   49.1810    1.3640 S.3    61  MET61      -0.1393
     44  CE        62.2850   49.5620    0.6260 C.3    61  MET61       0.0692
     45  N         59.9160   49.8900    6.6150 N.am   62  LEU62      -0.1980
     46  CA        58.9390   49.1020    7.2850 C.3    62  LEU62       0.1596
     47  C         58.5790   49.7580    8.5440 C.2    62  LEU62       0.2287
     48  O         59.5030   50.0540    9.3210 O.2    62  LEU62      -0.2864
     49  CB        59.4670   47.7240    7.6660 C.3    62  LEU62       0.0297
     50  CG        59.2130   46.4590    6.8950 C.3    62  LEU62       0.0022
     51  CD1       59.0650   45.4210    7.9390 C.3    62  LEU62       0.0001
     52  CD2       58.1050   46.3410    5.9790 C.3    62  LEU62       0.0001
     53  N         55.0170   46.0390   10.2800 N.3    66  GLY66      -0.1225
     54  CA        55.4210   45.2600    9.1520 C.3    66  GLY66       0.1811
     55  C         54.9700   45.8600    7.8260 C.2    66  GLY66       0.2280
     56  O         55.2540   45.3020    6.7810 O.2    66  GLY66      -0.2866
     57  N         54.7420   48.5020    4.5040 N.3    68  LEU68      -0.1245
     58  CA        55.6690   49.1930    3.7380 C.3    68  LEU68       0.1561
     59  C         55.4640   50.6600    3.9360 C.2    68  LEU68       0.2260
     60  O         54.3660   51.1680    3.7620 O.2    68  LEU68      -0.2867
     61  CB        55.5020   48.9090    2.2330 C.3    68  LEU68       0.0270
     62  CG        56.7070   49.1310    1.3450 C.3    68  LEU68       0.0019
     63  CD1       57.8750   48.2530    1.6240 C.3    68  LEU68       0.0001
     64  CD2       56.4270   49.2310   -0.2280 C.3    68  LEU68       0.0001
     65  N         60.4440   53.1460    0.4880 N.3    73  ALA73      -0.1245
     66  CA        60.6980   52.0710   -0.4450 C.3    73  ALA73       0.1562
     67  C         61.0720   52.5280   -1.9430 C.2    73  ALA73       0.2260
     68  O         61.9760   51.9400   -2.5820 O.2    73  ALA73      -0.2867
     69  CB        59.6090   51.0860   -0.4150 C.3    73  ALA73       0.0290
     70  N         53.9970   45.4780   -3.8980 N.3    94  VAL94      -0.1245
     71  CA        54.0800   45.2100   -2.4070 C.3    94  VAL94       0.1561
     72  C         52.7440   45.6330   -1.7880 C.2    94  VAL94       0.2260
     73  O         52.1150   44.9050   -1.0490 O.2    94  VAL94      -0.2867
     74  CB        55.2530   45.8340   -1.7630 C.3    94  VAL94       0.0252
     75  CG1       55.3570   45.3630   -0.2300 C.3    94  VAL94       0.0019
     76  CG2       56.5090   45.4220   -2.4930 C.3    94  VAL94       0.0019
     77  N         50.2440   43.2660    0.2060 N.3    98  GLU98      -0.1245
     78  CA        49.8370   43.6280    1.6390 C.3    98  GLU98       0.1567
     79  C         48.3700   43.5070    1.8350 C.2    98  GLU98       0.2260
     80  O         47.9140   43.0450    2.8850 O.2    98  GLU98      -0.2867
     81  CB        50.2280   45.0220    2.0780 C.3    98  GLU98       0.0388
     82  CG        51.7260   45.1300    2.1910 C.3    98  GLU98       0.1160
     83  CD        52.2150   46.4570    2.6780 C.2    98  GLU98       0.3649
     84  OE1       51.4690   47.4330    2.5550 O.co2  98  GLU98      -0.2457
     85  OE2       53.3790   46.5000    3.1150 O.co2  98  GLU98      -0.2457
     86  N         53.3690   36.7230    8.2310 N.3   110  TRP110     -0.1227
     87  CA        52.6310   37.5890    7.3500 C.3   110  TRP110      0.1737
     88  C         53.6810   38.0940    6.2720 C.2   110  TRP110      0.2596
     89  O         53.3980   38.1200    5.1050 O.2   110  TRP110     -0.2718
     90  CB        52.0500   38.7550    8.1550 C.3   110  TRP110      0.0564
     91  CG        51.2210   39.6880    7.3630 C.ar  110  TRP110      0.0003
     92  CD1       49.9190   39.4930    6.9300 C.ar  110  TRP110      0.0946
     93  CD2       51.6280   40.9570    6.8600 C.ar  110  TRP110      0.0152
     94  NE1       49.5490   40.5460    6.1440 N.ar  110  TRP110     -0.2442
     95  CE2       50.5760   41.4540    6.0880 C.ar  110  TRP110      0.0810
     96  CE3       52.8110   41.6670    6.8970 C.ar  110  TRP110      0.0012
     97  CZ2       50.6000   42.7110    5.5260 C.ar  110  TRP110      0.0191
     98  CZ3       52.8510   42.8990    6.2210 C.ar  110  TRP110      0.0001
     99  CH2       51.7440   43.3910    5.5870 C.ar  110  TRP110      0.0015
    100  N         54.9100   38.3130    6.7130 N.am  111  THR111     -0.1953
    101  CA        55.9910   38.8290    5.8460 C.3   111  THR111      0.1897
    102  C         56.4710   37.8350    4.7760 C.2   111  THR111      0.2313
    103  O         56.5550   38.2230    3.6180 O.2   111  THR111     -0.2863
    104  CB        57.1580   39.3000    6.6500 C.3   111  THR111      0.1794
    105  OG1       56.7700   40.4350    7.4060 O.3   111  THR111     -0.2208
    106  CG2       58.2600   39.8760    5.7080 C.3   111  THR111      0.0378
    107  N         53.6280   38.0580    2.0870 N.3   114  VAL114     -0.1231
    108  CA        53.7610   39.3010    1.2690 C.3   114  VAL114      0.1692
    109  C         54.9210   39.0830    0.3060 C.2   114  VAL114      0.2591
    110  O         54.7960   39.3790   -0.9050 O.2   114  VAL114     -0.2718
    111  CB        54.0100   40.5160    2.1420 C.3   114  VAL114      0.0266
    112  CG1       54.4410   41.7740    1.2660 C.3   114  VAL114      0.0020
    113  CG2       52.7740   40.8430    3.0040 C.3   114  VAL114      0.0020
    114  N         56.0590   38.6230    0.8340 N.am  115  ALA115     -0.1980
    115  CA        57.3080   38.4010    0.0170 C.3   115  ALA115      0.1597
    116  C         57.1240   37.3140   -1.0820 C.2   115  ALA115      0.2287
    117  O         57.6010   37.4850   -2.2190 O.2   115  ALA115     -0.2864
    118  CB        58.4360   38.0020    0.9130 C.3   115  ALA115      0.0319
    119  N         54.9430   38.9210   -3.6130 N.3   118  PHE118     -0.1241
    120  CA        55.7810   39.8550   -4.4000 C.3   118  PHE118      0.1605
    121  C         56.6260   39.0810   -5.4840 C.2   118  PHE118      0.2264
    122  O         56.7130   39.5390   -6.6300 O.2   118  PHE118     -0.2867
    123  CB        56.6910   40.7320   -3.4790 C.3   118  PHE118      0.0534
    124  CG        57.7440   41.6090   -4.1780 C.ar  118  PHE118     -0.0203
    125  CD1       57.4210   42.8220   -4.7170 C.ar  118  PHE118     -0.0042
    126  CD2       59.1160   41.1910   -4.2700 C.ar  118  PHE118     -0.0042
    127  CE1       58.3640   43.5840   -5.3780 C.ar  118  PHE118     -0.0003
    128  CE2       60.0550   42.0100   -4.9170 C.ar  118  PHE118     -0.0003
    129  CZ        59.6550   43.1670   -5.4590 C.ar  118  PHE118     -0.0000
@<TRIPOS>BOND
     1   122   121    2
     2   121   120    1
     3   129   127   ar
     4   129   128   ar
     5   127   125   ar
     6   128   126   ar
     7    15    14    2
     8   125   124   ar
     9    14    13    1
    10   120   119    1
    11   120   123    1
    12   126   124   ar
    13   124   123    1
    14    70    71    1
    15    19    21   ar
    16    19    17   ar
    17    21    22   ar
    18    13    12    1
    19    13    16    1
    20    16    17    1
    21    17    18   ar
    22    68    67    2
    23    76    74    1
    24    71    72    1
    25    71    74    1
    26    22    20   ar
    27   117   116    2
    28    67    66    1
    29    72    73    2
    30    74    75    1
    31    18    20   ar
    32   116   115    1
    33   110   109    2
    34     1     2    1
    35    66    69    1
    36    66    65    1
    37     5     2    1
    38     5     6    1
    39    64    62    1
    40   115   114    1
    41   115   118    1
    42    77    78    1
    43     2     3    1
    44   109   114   am
    45   109   108    1
    46    44    43    1
    47     6     7   ar
    48     6     8   ar
    49     7     9   ar
    50     3     4    2
    51   112   111    1
    52   108   107    1
    53   108   111    1
    54     8    10   ar
    55    62    63    1
    56    62    61    1
    57    43    42    1
    58    78    79    1
    59    78    81    1
    60    79    80    2
    61     9    11   ar
    62    81    82    1
    63   111   113    1
    64    82    83    1
    65    10    11   ar
    66    61    58    1
    67    42    41    1
    68    84    83   ar
    69    83    85   ar
    70    30    28    1
    71    41    38    1
    72   103   102    2
    73    58    59    1
    74    58    57    1
    75    60    59    2
    76    28    27    1
    77    29    27    1
    78    36    35    1
    79    38    39    1
    80    38    37    1
    81    40    39    2
    82   102   101    1
    83    27    24    1
    84    89    88    2
    85    35    32    1
    86    39    45   am
    87    97    99   ar
    88    97    95   ar
    89    99    98   ar
    90    32    31    1
    91    32    33    1
    92   106   104    1
    93    24    25    1
    94    24    23    1
    95   101   104    1
    96   101   100    1
    97    52    50    1
    98    95    94   ar
    99    95    93   ar
   100    94    92   ar
   101    26    25    2
   102    98    96   ar
   103    34    33    2
   104    88   100   am
   105    88    87    1
   106    45    46    1
   107   104   105    1
   108    56    55    2
   109    93    96   ar
   110    93    91   ar
   111    50    49    1
   112    50    51    1
   113    92    91   ar
   114    46    49    1
   115    46    47    1
   116    87    90    1
   117    87    86    1
   118    91    90    1
   119    55    54    1
   120    47    48    2
   121    54    53    1
