@<TRIPOS>MOLECULE
tmp/2p70A01.pdb
 140 134 0 0 0
SMALL
GASTEIGER

@<TRIPOS>ATOM
      1  N         66.4840   44.5370  -10.4990 N.3     5  MET5       -0.1301
      2  CA        66.0720   43.6730   -9.4630 C.3     5  MET5        0.1256
      3  C         67.2120   42.8580   -8.8330 C.3     5  MET5        0.2010
      4  O         67.3330   42.7210   -7.5590 O.3     5  MET5       -0.2188
      5  CB        64.9790   42.7710  -10.0470 C.3     5  MET5        0.0333
      6  CG        63.7010   43.3230  -10.3030 C.3     5  MET5        0.0592
      7  SD        62.9850   44.2110   -8.9450 S.3     5  MET5       -0.1393
      8  CE        62.9020   42.9960   -7.8580 C.3     5  MET5        0.0692
      9  N         68.9160   45.4520   -6.6640 N.3     8  LEU8       -0.1231
     10  CA        68.0800   45.6940   -5.4620 C.3     8  LEU8        0.1693
     11  C         68.2220   44.6150   -4.4210 C.2     8  LEU8        0.2592
     12  O         68.4210   44.9350   -3.2620 O.2     8  LEU8       -0.2718
     13  CB        66.6260   46.0170   -5.6980 C.3     8  LEU8        0.0284
     14  CG        66.1890   47.4250   -6.1330 C.3     8  LEU8        0.0019
     15  CD1       67.0580   48.0530   -7.1020 C.3     8  LEU8        0.0001
     16  CD2       64.9250   47.2380   -6.8220 C.3     8  LEU8        0.0001
     17  N         68.2000   43.3390   -4.8200 N.am    9  SER9       -0.1952
     18  CA        68.2490   42.2440   -3.9280 C.3     9  SER9        0.1924
     19  C         69.5630   42.0620   -3.3110 C.2     9  SER9        0.2314
     20  O         69.6640   41.8020   -2.0940 O.2     9  SER9       -0.2863
     21  CB        67.7140   40.9210   -4.5250 C.3     9  SER9        0.2116
     22  OG        68.1550   40.8980   -5.8040 O.3     9  SER9       -0.2180
     23  N         69.4850   44.8000   -0.8360 N.3    12  PHE12      -0.1227
     24  CA        68.5880   44.5600    0.2910 C.3    12  PHE12       0.1740
     25  C         69.2490   43.5830    1.2460 C.2    12  PHE12       0.2635
     26  O         69.1020   43.7020    2.4340 O.2    12  PHE12      -0.2714
     27  CB        67.3070   44.0020   -0.2490 C.3    12  PHE12       0.0548
     28  CG        66.3050   43.6500    0.7570 C.ar   12  PHE12      -0.0202
     29  CD1       65.4040   44.6300    1.2190 C.ar   12  PHE12      -0.0042
     30  CD2       66.2410   42.3530    1.2940 C.ar   12  PHE12      -0.0042
     31  CE1       64.4130   44.2950    2.0680 C.ar   12  PHE12      -0.0003
     32  CE2       65.2080   42.0230    2.2130 C.ar   12  PHE12      -0.0003
     33  CZ        64.2900   42.9750    2.5680 C.ar   12  PHE12      -0.0000
     34  N         69.9510   42.6210    0.7260 N.am   13  GLY13      -0.1732
     35  CA        70.6330   41.6350    1.4870 C.2    13  GLY13       0.1340
     36  C         71.9150   41.9830    2.2420 C.2    13  GLY13       0.2521
     37  O         72.3440   41.1760    3.1510 O.2    13  GLY13      -0.2816
     38  N         67.6300   32.7930    1.2600 N.3    33  PHE33      -0.1241
     39  CA        68.0520   33.9580    0.4920 C.3    33  PHE33       0.1605
     40  C         68.7630   33.4860   -0.8090 C.2    33  PHE33       0.2264
     41  O         68.5210   34.0270   -1.8530 O.2    33  PHE33      -0.2867
     42  CB        68.9840   34.8810    1.2780 C.3    33  PHE33       0.0534
     43  CG        68.2320   35.7190    2.2950 C.ar   33  PHE33      -0.0203
     44  CD1       67.3890   36.7030    1.9100 C.ar   33  PHE33      -0.0042
     45  CD2       68.1310   35.3210    3.5900 C.ar   33  PHE33      -0.0042
     46  CE1       66.6010   37.3580    2.8890 C.ar   33  PHE33      -0.0003
     47  CE2       67.3520   36.0540    4.5040 C.ar   33  PHE33      -0.0003
     48  CZ        66.6100   36.9930    4.1510 C.ar   33  PHE33      -0.0000
     49  N         66.0780   32.4660   -3.3360 N.3    36  PHE36      -0.1227
     50  CA        64.8250   33.2690   -3.3430 C.3    36  PHE36       0.1736
     51  C         64.1590   33.4280   -4.7010 C.2    36  PHE36       0.2595
     52  O         62.9230   33.2500   -4.7940 O.2    36  PHE36      -0.2718
     53  CB        65.0210   34.6600   -2.8000 C.3    36  PHE36       0.0547
     54  CG        63.7240   35.3990   -2.6140 C.ar   36  PHE36      -0.0202
     55  CD1       63.0150   35.2630   -1.4280 C.ar   36  PHE36      -0.0042
     56  CD2       63.2650   36.2350   -3.5350 C.ar   36  PHE36      -0.0042
     57  CE1       61.7700   35.9420   -1.2550 C.ar   36  PHE36      -0.0003
     58  CE2       62.1310   37.0340   -3.3570 C.ar   36  PHE36      -0.0003
     59  CZ        61.3310   36.8360   -2.2310 C.ar   36  PHE36      -0.0000
     60  N         64.9440   33.8340   -5.6880 N.am   37  TRP37      -0.1976
     61  CA        64.4660   34.1120   -7.0570 C.3    37  TRP37       0.1640
     62  C         64.3980   32.8840   -7.9690 C.2    37  TRP37       0.2290
     63  O         63.8810   32.9320   -9.0750 O.2    37  TRP37      -0.2864
     64  CB        65.4220   35.1130   -7.6770 C.3    37  TRP37       0.0576
     65  CG        65.1760   36.4680   -7.0740 C.ar   37  TRP37       0.0006
     66  CD1       66.0860   37.2030   -6.3890 C.ar   37  TRP37       0.0946
     67  CD2       63.9590   37.2390   -7.1010 C.ar   37  TRP37       0.0152
     68  NE1       65.5220   38.3800   -6.0010 N.ar   37  TRP37      -0.2442
     69  CE2       64.2230   38.4320   -6.4120 C.ar   37  TRP37       0.0810
     70  CE3       62.6760   37.0320   -7.6240 C.ar   37  TRP37       0.0012
     71  CZ2       63.2860   39.3830   -6.2110 C.ar   37  TRP37       0.0191
     72  CZ3       61.7150   37.9650   -7.4220 C.ar   37  TRP37       0.0001
     73  CH2       62.0150   39.1740   -6.6990 C.ar   37  TRP37       0.0015
     74  N         63.8040   39.0300    6.6490 N.3    52  ILE52      -0.1245
     75  CA        63.2940   40.0750    5.7400 C.3    52  ILE52       0.1561
     76  C         62.7490   41.2840    6.4470 C.2    52  ILE52       0.2260
     77  O         63.0450   42.3840    6.1580 O.2    52  ILE52      -0.2867
     78  CB        62.1820   39.5030    4.8450 C.3    52  ILE52       0.0252
     79  CG1       62.6830   38.3730    3.9280 C.3    52  ILE52       0.0019
     80  CG2       61.4000   40.6910    4.0260 C.3    52  ILE52       0.0019
     81  CD1       63.9110   38.6760    3.2200 C.3    52  ILE52       0.0001
     82  N         64.2560   44.9310    6.0850 N.3    56  SER56      -0.1217
     83  CA        63.4390   46.0730    5.6050 C.3    56  SER56       0.1889
     84  C         63.3950   47.2430    6.6090 C.2    56  SER56       0.2288
     85  O         63.4480   48.4620    6.2710 O.2    56  SER56      -0.2866
     86  CB        61.9930   45.6280    5.1970 C.3    56  SER56       0.2089
     87  OG        62.1030   44.6170    4.2620 O.3    56  SER56      -0.2183
     88  N         62.0980   50.9760    5.4650 N.3    61  MET61      -0.1301
     89  CA        61.0370   50.7070    4.5730 C.3    61  MET61       0.1256
     90  C         59.8500   50.1310    5.2800 C.3    61  MET61       0.2010
     91  O         58.9650   49.8570    4.5990 O.3    61  MET61      -0.2188
     92  CB        61.5000   49.6370    3.5520 C.3    61  MET61       0.0333
     93  CG        62.3650   50.2660    2.5540 C.3    61  MET61       0.0592
     94  SD        62.9430   49.1810    1.3640 S.3    61  MET61      -0.1393
     95  CE        62.2850   49.5620    0.6260 C.3    61  MET61       0.0692
     96  N         54.7420   48.5020    4.5040 N.3    68  LEU68      -0.1245
     97  CA        55.6690   49.1930    3.7380 C.3    68  LEU68       0.1561
     98  C         55.4640   50.6600    3.9360 C.2    68  LEU68       0.2260
     99  O         54.3660   51.1680    3.7620 O.2    68  LEU68      -0.2867
    100  CB        55.5020   48.9090    2.2330 C.3    68  LEU68       0.0270
    101  CG        56.7070   49.1310    1.3450 C.3    68  LEU68       0.0019
    102  CD1       57.8750   48.2530    1.6240 C.3    68  LEU68       0.0001
    103  CD2       56.4270   49.2310   -0.2280 C.3    68  LEU68       0.0001
    104  N         64.6840   53.7270   -1.6110 N.3    76  PHE76      -0.1241
    105  CA        65.6200   52.5140   -1.7010 C.3    76  PHE76       0.1605
    106  C         65.7520   52.0050   -3.2100 C.2    76  PHE76       0.2264
    107  O         66.8850   51.7830   -3.7430 O.2    76  PHE76      -0.2867
    108  CB        65.1580   51.4040   -0.7650 C.3    76  PHE76       0.0534
    109  CG        65.9650   50.0760   -0.8620 C.ar   76  PHE76      -0.0203
    110  CD1       67.0920   49.8460   -0.1030 C.ar   76  PHE76      -0.0042
    111  CD2       65.6190   49.1100   -1.7790 C.ar   76  PHE76      -0.0042
    112  CE1       67.8280   48.7070   -0.2170 C.ar   76  PHE76      -0.0003
    113  CE2       66.3790   47.9450   -1.8820 C.ar   76  PHE76      -0.0003
    114  CZ        67.4330   47.7420   -1.1180 C.ar   76  PHE76      -0.0000
    115  N         57.0390   48.3220   -8.5100 N.3    90  LEU90      -0.1245
    116  CA        57.4940   47.5780   -7.2610 C.3    90  LEU90       0.1561
    117  C         56.6460   47.8760   -6.0400 C.2    90  LEU90       0.2260
    118  O         56.2100   46.9450   -5.3810 O.2    90  LEU90      -0.2867
    119  CB        59.0070   47.8190   -6.9390 C.3    90  LEU90       0.0270
    120  CG        60.0040   47.4510   -8.0270 C.3    90  LEU90       0.0019
    121  CD1       61.4570   47.7120   -7.6730 C.3    90  LEU90       0.0001
    122  CD2       59.7670   46.0430   -8.4520 C.3    90  LEU90       0.0001
    123  N         53.9970   45.4780   -3.8980 N.3    94  VAL94      -0.1245
    124  CA        54.0800   45.2100   -2.4070 C.3    94  VAL94       0.1561
    125  C         52.7440   45.6330   -1.7880 C.2    94  VAL94       0.2260
    126  O         52.1150   44.9050   -1.0490 O.2    94  VAL94      -0.2867
    127  CB        55.2530   45.8340   -1.7630 C.3    94  VAL94       0.0252
    128  CG1       55.3570   45.3630   -0.2300 C.3    94  VAL94       0.0019
    129  CG2       56.5090   45.4220   -2.4930 C.3    94  VAL94       0.0019
    130  N         54.9430   38.9210   -3.6130 N.3   118  PHE118     -0.1241
    131  CA        55.7810   39.8550   -4.4000 C.3   118  PHE118      0.1605
    132  C         56.6260   39.0810   -5.4840 C.2   118  PHE118      0.2264
    133  O         56.7130   39.5390   -6.6300 O.2   118  PHE118     -0.2867
    134  CB        56.6910   40.7320   -3.4790 C.3   118  PHE118      0.0534
    135  CG        57.7440   41.6090   -4.1780 C.ar  118  PHE118     -0.0203
    136  CD1       57.4210   42.8220   -4.7170 C.ar  118  PHE118     -0.0042
    137  CD2       59.1160   41.1910   -4.2700 C.ar  118  PHE118     -0.0042
    138  CE1       58.3640   43.5840   -5.3780 C.ar  118  PHE118     -0.0003
    139  CE2       60.0550   42.0100   -4.9170 C.ar  118  PHE118     -0.0003
    140  CZ        59.6550   43.1670   -5.4590 C.ar  118  PHE118     -0.0000
@<TRIPOS>BOND
     1     1     2    1
     2     6     5    1
     3     6     7    1
     4     5     2    1
     5     2     3    1
     6    63    62    2
     7     7     8    1
     8     3     4    1
     9   115   116    1
    10   122   120    1
    11   120   121    1
    12   120   119    1
    13    62    61    1
    14    64    65    1
    15    64    61    1
    16    70    72   ar
    17    70    67   ar
    18    72    73   ar
    19   116   119    1
    20   116   117    1
    21    15    14    1
    22    67    65   ar
    23    67    69   ar
    24    65    66   ar
    25    61    60    1
    26    16    14    1
    27    73    71   ar
    28     9    10    1
    29   133   132    2
    30    69    71   ar
    31    69    68   ar
    32    66    68   ar
    33    14    13    1
    34   117   118    2
    35    22    21    1
    36    13    10    1
    37    60    51   am
    38   132   131    1
    39    10    11    1
    40   140   138   ar
    41   140   139   ar
    42   138   136   ar
    43   139   137   ar
    44    17    11   am
    45    17    18    1
    46    52    51    2
    47   136   135   ar
    48    51    50    1
    49    21    18    1
    50    11    12    2
    51   131   130    1
    52   131   134    1
    53   137   135   ar
    54   135   134    1
    55    18    19    1
    56   123   124    1
    57   107   106    2
    58    56    58   ar
    59    56    54   ar
    60    58    59   ar
    61    50    49    1
    62    50    53    1
    63    19    20    2
    64   106   105    1
    65    53    54    1
    66    54    55   ar
    67   129   127    1
    68   124   125    1
    69   124   127    1
    70    59    57   ar
    71   113   111   ar
    72   113   114   ar
    73    41    40    2
    74   125   126    2
    75   111   109   ar
    76   127   128    1
    77   105   104    1
    78   105   108    1
    79    55    57   ar
    80   114   112   ar
    81   109   108    1
    82   109   110   ar
    83    23    24    1
    84    40    39    1
    85    27    24    1
    86    27    28    1
    87   103   101    1
    88   112   110   ar
    89    24    25    1
    90    39    38    1
    91    39    42    1
    92    95    94    1
    93    34    25   am
    94    34    35    1
    95    28    29   ar
    96    28    30   ar
    97    29    31   ar
    98    25    26    2
    99    42    43    1
   100    30    32   ar
   101   101   102    1
   102   101   100    1
   103    94    93    1
   104    35    36    2
   105    44    43   ar
   106    44    46   ar
   107    31    33   ar
   108    32    33   ar
   109   100    97    1
   110    36    37    1
   111    43    45   ar
   112    93    92    1
   113    46    48   ar
   114    81    79    1
   115    92    89    1
   116    45    47   ar
   117    97    98    1
   118    97    96    1
   119    99    98    2
   120    79    78    1
   121    80    78    1
   122    48    47   ar
   123    87    86    1
   124    89    90    1
   125    89    88    1
   126    91    90    1
   127    78    75    1
   128    86    83    1
   129    83    82    1
   130    83    84    1
   131    75    76    1
   132    75    74    1
   133    77    76    2
   134    85    84    2
