@<TRIPOS>MOLECULE
tmp/2p71A00.pdb
 193 185 0 0 0
SMALL
GASTEIGER

@<TRIPOS>ATOM
      1  N         66.6640   44.2940  -10.8580 N.3     5  MET5       -0.1301
      2  CA        66.3140   43.3800   -9.7630 C.3     5  MET5        0.1256
      3  C         67.4310   42.6820   -9.0780 C.3     5  MET5        0.2010
      4  O         67.4380   42.6020   -7.7830 O.3     5  MET5       -0.2188
      5  CB        65.2070   42.3240  -10.1620 C.3     5  MET5        0.0333
      6  CG        64.0330   43.0340  -10.4880 C.3     5  MET5        0.0592
      7  SD        63.0780   43.9460   -9.1930 S.3     5  MET5       -0.1393
      8  CE        63.1350   42.6420   -7.9780 C.3     5  MET5        0.0692
      9  N         69.0790   45.3960   -6.7520 N.3     8  LEU8       -0.1231
     10  CA        68.1480   45.6540   -5.6530 C.3     8  LEU8        0.1693
     11  C         68.2160   44.5080   -4.5930 C.2     8  LEU8        0.2592
     12  O         68.3480   44.7940   -3.4070 O.2     8  LEU8       -0.2718
     13  CB        66.7640   45.8660   -6.1890 C.3     8  LEU8        0.0284
     14  CG        66.1850   47.2720   -6.4890 C.3     8  LEU8        0.0019
     15  CD1       67.0420   48.1120   -7.2370 C.3     8  LEU8        0.0001
     16  CD2       64.9390   47.0900   -7.2130 C.3     8  LEU8        0.0001
     17  N         68.2560   43.2460   -5.0520 N.am    9  SER9       -0.1952
     18  CA        68.4450   42.0380   -4.2010 C.3     9  SER9        0.1924
     19  C         69.7740   41.9810   -3.4930 C.2     9  SER9        0.2314
     20  O         69.8710   41.8300   -2.2680 O.2     9  SER9       -0.2863
     21  CB        68.2320   40.7090   -5.0320 C.3     9  SER9        0.2116
     22  OG        66.9970   40.7970   -5.7820 O.3     9  SER9       -0.2180
     23  N         69.6420   44.8510   -1.0040 N.3    12  PHE12      -0.1241
     24  CA        68.7060   44.5540    0.0870 C.3    12  PHE12       0.1605
     25  C         69.4300   43.5820    1.0990 C.2    12  PHE12       0.2264
     26  O         69.3870   43.7040    2.3200 O.2    12  PHE12      -0.2867
     27  CB        67.4690   43.8780   -0.4720 C.3    12  PHE12       0.0534
     28  CG        66.4060   43.5740    0.5750 C.ar   12  PHE12      -0.0203
     29  CD1       65.4650   44.5240    0.9010 C.ar   12  PHE12      -0.0042
     30  CD2       66.2730   42.3150    1.1050 C.ar   12  PHE12      -0.0042
     31  CE1       64.4430   44.2230    1.8300 C.ar   12  PHE12      -0.0003
     32  CE2       65.2620   42.0760    2.0470 C.ar   12  PHE12      -0.0003
     33  CZ        64.3860   43.0020    2.3600 C.ar   12  PHE12      -0.0000
     34  N         66.0620   32.4110   -3.3920 N.3    36  PHE36      -0.1227
     35  CA        64.9160   33.2440   -3.4730 C.3    36  PHE36       0.1736
     36  C         64.3180   33.4030   -4.8720 C.2    36  PHE36       0.2595
     37  O         63.0930   33.2910   -5.0090 O.2    36  PHE36      -0.2718
     38  CB        65.2050   34.6390   -2.9530 C.3    36  PHE36       0.0547
     39  CG        63.9970   35.4270   -2.7170 C.ar   36  PHE36      -0.0202
     40  CD1       63.2740   35.2830   -1.4980 C.ar   36  PHE36      -0.0042
     41  CD2       63.5270   36.3250   -3.7190 C.ar   36  PHE36      -0.0042
     42  CE1       62.0940   35.9860   -1.3250 C.ar   36  PHE36      -0.0003
     43  CE2       62.3670   37.0460   -3.5680 C.ar   36  PHE36      -0.0003
     44  CZ        61.6370   36.8560   -2.3600 C.ar   36  PHE36      -0.0000
     45  N         65.1480   33.6950   -5.8720 N.am   37  TRP37      -0.1976
     46  CA        64.6230   34.0030   -7.2040 C.3    37  TRP37       0.1640
     47  C         64.5110   32.7410   -8.1240 C.2    37  TRP37       0.2290
     48  O         64.0170   32.8380   -9.2650 O.2    37  TRP37      -0.2864
     49  CB        65.5180   35.0400   -7.9070 C.3    37  TRP37       0.0576
     50  CG        65.2850   36.3950   -7.3290 C.ar   37  TRP37       0.0006
     51  CD1       66.1770   37.1090   -6.5950 C.ar   37  TRP37       0.0946
     52  CD2       64.0820   37.1200   -7.3130 C.ar   37  TRP37       0.0152
     53  NE1       65.6150   38.3100   -6.1980 N.ar   37  TRP37      -0.2442
     54  CE2       64.3040   38.3110   -6.5320 C.ar   37  TRP37       0.0810
     55  CE3       62.8030   36.8870   -7.7960 C.ar   37  TRP37       0.0012
     56  CZ2       63.3300   39.3180   -6.3640 C.ar   37  TRP37       0.0191
     57  CZ3       61.8450   37.8490   -7.5820 C.ar   37  TRP37       0.0001
     58  CH2       62.1180   39.0910   -6.8810 C.ar   37  TRP37       0.0015
     59  N         63.7080   38.9590    6.5730 N.3    52  ILE52      -0.1245
     60  CA        63.2270   39.9330    5.6180 C.3    52  ILE52       0.1561
     61  C         62.6250   41.1700    6.3110 C.2    52  ILE52       0.2260
     62  O         62.7510   42.3340    5.9270 O.2    52  ILE52      -0.2867
     63  CB        62.1880   39.2660    4.5890 C.3    52  ILE52       0.0252
     64  CG1       62.8930   38.3190    3.6270 C.3    52  ILE52       0.0019
     65  CG2       61.4520   40.2920    3.8090 C.3    52  ILE52       0.0019
     66  CD1       63.8260   38.9990    2.6260 C.3    52  ILE52       0.0001
     67  N         64.1290   44.8920    5.9600 N.3    56  SER56      -0.1217
     68  CA        63.3360   45.9500    5.4300 C.3    56  SER56       0.1889
     69  C         63.2850   47.0950    6.4630 C.2    56  SER56       0.2288
     70  O         63.2580   48.2150    6.1060 O.2    56  SER56      -0.2866
     71  CB        61.9170   45.4670    5.0740 C.3    56  SER56       0.2089
     72  OG        61.8970   44.3950    4.0860 O.3    56  SER56      -0.2183
     73  N         61.9900   50.7680    5.0100 N.3    61  MET61      -0.1230
     74  CA        60.8730   50.4870    4.2010 C.3    61  MET61       0.1702
     75  C         59.7100   49.8550    4.9780 C.2    61  MET61       0.2592
     76  O         58.6600   49.7300    4.4550 O.2    61  MET61      -0.2718
     77  CB        61.2980   49.5580    3.0920 C.3    61  MET61       0.0401
     78  CG        62.3710   50.1730    2.2210 C.3    61  MET61       0.0596
     79  SD        62.5900   49.1750    0.8270 S.3    61  MET61      -0.1393
     80  CE        63.6440   48.0590    1.3160 C.3    61  MET61       0.0692
     81  N         59.9460   49.4280    6.2210 N.am   62  LEU62      -0.1980
     82  CA        58.8890   48.9400    7.0980 C.3    62  LEU62       0.1596
     83  C         58.8910   49.7350    8.3350 C.2    62  LEU62       0.2287
     84  O         59.9480   50.0530    8.9280 O.2    62  LEU62      -0.2864
     85  CB        59.0660   47.4940    7.6000 C.3    62  LEU62       0.0297
     86  CG        58.6430   46.2880    6.7980 C.3    62  LEU62       0.0022
     87  CD1       58.8090   45.1110    7.7540 C.3    62  LEU62       0.0001
     88  CD2       57.2660   46.3510    6.2980 C.3    62  LEU62       0.0001
     89  N         54.2260   48.9310    4.5850 N.3    68  LEU68      -0.1245
     90  CA        55.3290   49.3500    3.7660 C.3    68  LEU68       0.1561
     91  C         55.2940   50.8990    3.8520 C.2    68  LEU68       0.2260
     92  O         54.2590   51.5210    3.8130 O.2    68  LEU68      -0.2867
     93  CB        55.2210   48.8580    2.2710 C.3    68  LEU68       0.0270
     94  CG        56.3770   49.1750    1.2870 C.3    68  LEU68       0.0019
     95  CD1       57.5750   48.2470    1.3610 C.3    68  LEU68       0.0001
     96  CD2       55.9400   49.3260   -0.1440 C.3    68  LEU68       0.0001
     97  N         60.3780   53.0350    0.1010 N.3    73  ALA73      -0.1245
     98  CA        60.5470   51.8740   -0.7270 C.3    73  ALA73       0.1562
     99  C         60.9080   52.3500   -2.1560 C.2    73  ALA73       0.2260
    100  O         61.8920   51.8440   -2.7990 O.2    73  ALA73      -0.2867
    101  CB        59.2820   51.0490   -0.6630 C.3    73  ALA73       0.0290
    102  N         64.5240   53.5460   -2.0400 N.3    76  PHE76      -0.1227
    103  CA        65.4600   52.3630   -2.1650 C.3    76  PHE76       0.1736
    104  C         65.6340   51.8930   -3.5980 C.2    76  PHE76       0.2595
    105  O         66.7440   51.5670   -4.0370 O.2    76  PHE76      -0.2718
    106  CB        65.0080   51.2750   -1.2430 C.3    76  PHE76       0.0547
    107  CG        65.8520   50.0190   -1.2990 C.ar   76  PHE76      -0.0202
    108  CD1       66.8880   49.8210   -0.4380 C.ar   76  PHE76      -0.0042
    109  CD2       65.5030   49.0080   -2.1310 C.ar   76  PHE76      -0.0042
    110  CE1       67.7220   48.6520   -0.5320 C.ar   76  PHE76      -0.0003
    111  CE2       66.2790   47.8580   -2.1530 C.ar   76  PHE76      -0.0003
    112  CZ        67.3600   47.7030   -1.3560 C.ar   76  PHE76      -0.0000
    113  N         64.5240   51.7520   -4.2880 N.am   77  ALA77      -0.1980
    114  CA        64.5110   51.3190   -5.6990 C.3    77  ALA77       0.1597
    115  C         65.2840   52.2200   -6.5340 C.2    77  ALA77       0.2287
    116  O         66.1650   51.8180   -7.2960 O.2    77  ALA77      -0.2864
    117  CB        63.1220   51.1900   -6.1900 C.3    77  ALA77       0.0319
    118  N         57.0850   48.3310   -9.0350 N.3    90  LEU90      -0.1231
    119  CA        57.4890   47.5500   -7.8370 C.3    90  LEU90       0.1693
    120  C         56.5870   47.8470   -6.5710 C.2    90  LEU90       0.2591
    121  O         56.1410   46.9280   -5.8770 O.2    90  LEU90      -0.2718
    122  CB        59.0270   47.7360   -7.5210 C.3    90  LEU90       0.0284
    123  CG        60.0590   47.3160   -8.5210 C.3    90  LEU90       0.0019
    124  CD1       61.5050   47.6060   -8.0420 C.3    90  LEU90       0.0001
    125  CD2       59.9500   45.8300   -8.7010 C.3    90  LEU90       0.0001
    126  N         56.4180   49.1290   -6.2320 N.am   91  ILE91      -0.1980
    127  CA        55.5770   49.5650   -5.1320 C.3    91  ILE91       0.1595
    128  C         54.1540   49.0880   -5.2680 C.2    91  ILE91       0.2287
    129  O         53.5480   48.5490   -4.3510 O.2    91  ILE91      -0.2864
    130  CB        55.6100   51.1610   -4.9930 C.3    91  ILE91       0.0276
    131  CG1       56.9800   51.7480   -4.5060 C.3    91  ILE91       0.0022
    132  CG2       54.5940   51.6440   -3.9930 C.3    91  ILE91       0.0022
    133  CD1       57.9790   50.7890   -4.0550 C.3    91  ILE91       0.0001
    134  N         54.1440   45.3530   -4.3450 N.3    94  VAL94      -0.1245
    135  CA        54.1910   45.1840   -2.8770 C.3    94  VAL94       0.1561
    136  C         52.8620   45.6160   -2.2020 C.2    94  VAL94       0.2260
    137  O         52.3110   44.9340   -1.3450 O.2    94  VAL94      -0.2867
    138  CB        55.3630   45.8890   -2.2780 C.3    94  VAL94       0.0252
    139  CG1       55.4390   45.6010   -0.7410 C.3    94  VAL94       0.0019
    140  CG2       56.5720   45.3780   -2.8210 C.3    94  VAL94       0.0019
    141  N         50.4220   43.2770   -0.0060 N.3    98  GLU98      -0.1245
    142  CA        49.9220   43.5660    1.4070 C.3    98  GLU98       0.1567
    143  C         48.4180   43.4380    1.5600 C.2    98  GLU98       0.2260
    144  O         47.9280   43.0150    2.5910 O.2    98  GLU98      -0.2867
    145  CB        50.2870   44.9890    1.8290 C.3    98  GLU98       0.0388
    146  CG        51.7370   45.1030    2.2070 C.3    98  GLU98       0.1160
    147  CD        52.1340   46.5130    2.6940 C.2    98  GLU98       0.3649
    148  OE1       51.3280   47.4810    2.5140 O.co2  98  GLU98      -0.2457
    149  OE2       53.2820   46.6080    3.2350 O.co2  98  GLU98      -0.2457
    150  N         53.4540   36.8300    8.1270 N.3   110  TRP110     -0.1227
    151  CA        52.8660   37.8240    7.2340 C.3   110  TRP110      0.1737
    152  C         53.9130   38.2410    6.1270 C.2   110  TRP110      0.2596
    153  O         53.5930   38.3080    4.9090 O.2   110  TRP110     -0.2718
    154  CB        52.5200   39.0980    8.0230 C.3   110  TRP110      0.0564
    155  CG        51.7350   39.9370    7.2120 C.ar  110  TRP110      0.0003
    156  CD1       50.3970   39.7640    6.8460 C.ar  110  TRP110      0.0946
    157  CD2       52.1520   41.1310    6.6650 C.ar  110  TRP110      0.0152
    158  NE1       50.0160   40.7990    6.0600 N.ar  110  TRP110     -0.2442
    159  CE2       51.0880   41.6510    5.9270 C.ar  110  TRP110      0.0810
    160  CE3       53.3320   41.8650    6.7630 C.ar  110  TRP110      0.0012
    161  CZ2       51.1950   42.8590    5.2330 C.ar  110  TRP110      0.0191
    162  CZ3       53.4560   43.0110    6.0270 C.ar  110  TRP110      0.0001
    163  CH2       52.4000   43.5140    5.3250 C.ar  110  TRP110      0.0015
    164  N         55.1310   38.4930    6.5400 N.am  111  THR111     -0.1953
    165  CA        56.1680   38.9390    5.6310 C.3   111  THR111      0.1897
    166  C         56.4400   37.8550    4.5500 C.2   111  THR111      0.2313
    167  O         56.7320   38.1680    3.3500 O.2   111  THR111     -0.2863
    168  CB        57.4050   39.2200    6.4360 C.3   111  THR111      0.1794
    169  OG1       57.1310   40.3140    7.2800 O.3   111  THR111     -0.2208
    170  CG2       58.5720   39.8910    5.5310 C.3   111  THR111      0.0378
    171  N         53.7550   38.0450    1.9640 N.3   114  VAL114     -0.1231
    172  CA        53.9040   39.2290    1.0320 C.3   114  VAL114      0.1692
    173  C         55.0450   39.0120    0.0620 C.2   114  VAL114      0.2591
    174  O         54.9300   39.3480   -1.1760 O.2   114  VAL114     -0.2718
    175  CB        54.1320   40.5520    1.9120 C.3   114  VAL114      0.0266
    176  CG1       54.4270   41.7060    1.0550 C.3   114  VAL114      0.0020
    177  CG2       52.9560   40.8330    2.7940 C.3   114  VAL114      0.0020
    178  N         56.1760   38.5800    0.6150 N.am  115  ALA115     -0.1980
    179  CA        57.4050   38.2970   -0.1370 C.3   115  ALA115      0.1597
    180  C         57.2760   37.1760   -1.2230 C.2   115  ALA115      0.2287
    181  O         57.8250   37.3690   -2.3630 O.2   115  ALA115     -0.2864
    182  CB        58.5450   37.8980    0.7540 C.3   115  ALA115      0.0319
    183  N         55.1050   38.8200   -3.9380 N.3   118  PHE118     -0.1241
    184  CA        56.0060   39.7160   -4.6350 C.3   118  PHE118      0.1605
    185  C         56.9070   39.0080   -5.6500 C.2   118  PHE118      0.2264
    186  O         56.9750   39.4150   -6.8160 O.2   118  PHE118     -0.2867
    187  CB        56.8710   40.5910   -3.6310 C.3   118  PHE118      0.0534
    188  CG        57.9060   41.4700   -4.3080 C.ar  118  PHE118     -0.0203
    189  CD1       57.5780   42.6790   -4.7940 C.ar  118  PHE118     -0.0042
    190  CD2       59.2250   41.0910   -4.3630 C.ar  118  PHE118     -0.0042
    191  CE1       58.4770   43.4500   -5.3980 C.ar  118  PHE118     -0.0003
    192  CE2       60.1420   41.8910   -4.9940 C.ar  118  PHE118     -0.0003
    193  CZ        59.7380   43.0550   -5.5380 C.ar  118  PHE118     -0.0000
@<TRIPOS>BOND
     1     1     2    1
     2     6     5    1
     3     6     7    1
     4     5     2    1
     5     2     3    1
     6    48    47    2
     7     7     8    1
     8     3     4    1
     9   118   119    1
    10   125   123    1
    11   123   124    1
    12   123   122    1
    13    47    46    1
    14    49    50    1
    15    49    46    1
    16   119   122    1
    17   119   120    1
    18    55    57   ar
    19    55    52   ar
    20    57    58   ar
    21    50    52   ar
    22    50    51   ar
    23    52    54   ar
    24   116   115    2
    25    15    14    1
    26    16    14    1
    27    46    45    1
    28    58    56   ar
    29   186   185    2
    30     9    10    1
    31    51    53   ar
    32   120   126   am
    33   120   121    2
    34   115   114    1
    35    54    56   ar
    36    54    53   ar
    37    14    13    1
    38   126   127    1
    39   117   114    1
    40    13    10    1
    41    45    36   am
    42    22    21    1
    43   114   113    1
    44    10    11    1
    45   185   184    1
    46   193   191   ar
    47   193   192   ar
    48   191   189   ar
    49   128   127    1
    50   128   129    2
    51   127   130    1
    52    17    11   am
    53    17    18    1
    54    21    18    1
    55    37    36    2
    56   192   190   ar
    57   130   131    1
    58   130   132    1
    59    36    35    1
    60   189   188   ar
    61   184   183    1
    62   184   187    1
    63    11    12    2
    64   131   133    1
    65   190   188   ar
    66   134   135    1
    67   188   187    1
    68   113   104   am
    69    18    19    1
    70   105   104    2
    71    41    43   ar
    72    41    39   ar
    73   104   103    1
    74    43    44   ar
    75    19    20    2
    76    35    34    1
    77    35    38    1
    78    38    39    1
    79   135   138    1
    80   135   136    1
    81   140   138    1
    82   100    99    2
    83    39    40   ar
    84   181   180    2
    85    44    42   ar
    86   138   139    1
    87   136   137    2
    88   103   102    1
    89   103   106    1
    90    99    98    1
    91   111   109   ar
    92   111   112   ar
    93   109   107   ar
    94    40    42   ar
    95   112   110   ar
    96   107   106    1
    97   107   108   ar
    98   180   179    1
    99   174   173    2
   100    23    24    1
   101    98   101    1
   102    98    97    1
   103   110   108   ar
   104    27    24    1
   105    27    28    1
   106    96    94    1
   107   179   178    1
   108   179   182    1
   109   141   142    1
   110   173   178   am
   111   173   172    1
   112    24    25    1
   113    28    29   ar
   114    28    30   ar
   115    79    80    1
   116    79    78    1
   117    29    31   ar
   118   172   175    1
   119   172   171    1
   120   176   175    1
   121    25    26    2
   122    30    32   ar
   123    94    95    1
   124    94    93    1
   125   142   143    1
   126   142   145    1
   127   143   144    2
   128   145   146    1
   129    31    33   ar
   130   175   177    1
   131    32    33   ar
   132   146   147    1
   133    78    77    1
   134    93    90    1
   135   148   147   ar
   136    66    64    1
   137   147   149   ar
   138    77    74    1
   139   167   166    2
   140    64    63    1
   141    90    91    1
   142    90    89    1
   143    65    63    1
   144    92    91    2
   145    72    71    1
   146    74    75    1
   147    74    73    1
   148    76    75    2
   149   166   165    1
   150    63    60    1
   151   153   152    2
   152    75    81   am
   153    71    68    1
   154   161   163   ar
   155   161   159   ar
   156   163   162   ar
   157    68    67    1
   158    68    69    1
   159   170   168    1
   160    60    61    1
   161    60    59    1
   162   165   168    1
   163   165   164    1
   164   159   158   ar
   165   159   157   ar
   166    62    61    2
   167   162   160   ar
   168   158   156   ar
   169    70    69    2
   170   152   164   am
   171   152   151    1
   172    81    82    1
   173    88    86    1
   174   168   169    1
   175   157   160   ar
   176   157   155   ar
   177    86    85    1
   178    86    87    1
   179   156   155   ar
   180    82    85    1
   181    82    83    1
   182   155   154    1
   183   151   154    1
   184   151   150    1
   185    83    84    2
