@<TRIPOS>MOLECULE
tmp/2p72B00.pdb
 234 228 0 0 0
SMALL
GASTEIGER

@<TRIPOS>ATOM
      1  N        -12.0730   25.2850   -4.9680 N.3     8  GLY8       -0.1210
      2  CA       -11.5100   25.3920   -6.3010 C.3     8  GLY8        0.1956
      3  C        -11.8960   26.7180   -6.9140 C.2     8  GLY8        0.2612
      4  O        -12.8850   27.3430   -6.5120 O.2     8  GLY8       -0.2717
      5  N        -11.0870   27.1870   -7.8460 N.am    9  HIS9       -0.1961
      6  CA       -11.4070   28.4110   -8.5520 C.3     9  HIS9        0.1787
      7  C        -10.6630   28.4370   -9.8490 C.2     9  HIS9        0.2620
      8  O         -9.4850   28.1410   -9.8960 O.2     9  HIS9       -0.2715
      9  CB       -11.0500   29.6510   -7.7480 C.3     9  HIS9        0.0785
     10  CG       -11.5440   30.9280   -8.3640 C.ar    9  HIS9        0.0821
     11  ND1      -12.7810   31.4680   -8.0650 N.ar    9  HIS9       -0.2267
     12  CD2      -10.9750   31.7650   -9.2680 C.ar    9  HIS9        0.1154
     13  CE1      -12.9440   32.5890   -8.7480 C.ar    9  HIS9        0.1986
     14  NE2      -11.8650   32.7910   -9.4850 N.ar    9  HIS9       -0.2212
     15  N        -11.3830   28.7890  -10.8950 N.am   10  PHE10      -0.1960
     16  CA       -10.7820   29.0630  -12.1750 C.3    10  PHE10       0.1756
     17  C        -11.0190   30.5270  -12.5440 C.2    10  PHE10       0.2461
     18  O        -12.1620   31.0090  -12.5110 O.2    10  PHE10      -0.2730
     19  CB       -11.3490   28.1220  -13.2320 C.3    10  PHE10       0.0574
     20  CG       -10.8500   28.4070  -14.6090 C.ar   10  PHE10      -0.0200
     21  CD1       -9.6430   27.8630  -15.0510 C.ar   10  PHE10      -0.0042
     22  CD2      -11.5680   29.2330  -15.4570 C.ar   10  PHE10      -0.0042
     23  CE1       -9.1710   28.1330  -16.3200 C.ar   10  PHE10      -0.0003
     24  CE2      -11.1070   29.5010  -16.7300 C.ar   10  PHE10      -0.0003
     25  CZ        -9.9060   28.9540  -17.1590 C.ar   10  PHE10      -0.0000
     26  N         -9.9440   31.2490  -12.9060 N.am   11  PRO11      -0.2727
     27  CA        -8.5790   30.7280  -13.0350 C.3    11  PRO11       0.1402
     28  C         -7.8180   30.7250  -11.7120 C.2    11  PRO11       0.2269
     29  O         -8.2210   31.3810  -10.7740 O.2    11  PRO11      -0.2865
     30  CB        -7.9400   31.6910  -14.0350 C.3    11  PRO11       0.0296
     31  CG        -8.6490   33.0150  -13.7770 C.3    11  PRO11       0.0237
     32  CD       -10.0270   32.6850  -13.2470 C.3    11  PRO11       0.0939
     33  N         -7.4910   36.8900   -4.6300 N.3    16  TYR16      -0.1241
     34  CA        -8.2550   36.6400   -3.4010 C.3    16  TYR16       0.1605
     35  C         -8.4510   35.1480   -3.1500 C.2    16  TYR16       0.2264
     36  O         -8.4870   34.6990   -1.9950 O.2    16  TYR16      -0.2867
     37  CB        -9.6020   37.4080   -3.3840 C.3    16  TYR16       0.0534
     38  CG       -10.6760   36.8290   -4.2840 C.ar   16  TYR16      -0.0201
     39  CD1      -11.4620   35.7430   -3.8630 C.ar   16  TYR16      -0.0009
     40  CD2      -10.8960   37.3560   -5.5680 C.ar   16  TYR16      -0.0009
     41  CE1      -12.4350   35.1940   -4.7000 C.ar   16  TYR16       0.0417
     42  CE2      -11.8770   36.8380   -6.3960 C.ar   16  TYR16       0.0417
     43  CZ       -12.6370   35.7520   -5.9650 C.ar   16  TYR16       0.1957
     44  OH       -13.6040   35.2310   -6.7930 O.3    16  TYR16      -0.2866
     45  N        -19.7440   30.3790  -17.2650 N.3    47  GLU47      -0.1245
     46  CA       -20.1030   30.7230  -15.8640 C.3    47  GLU47       0.1567
     47  C        -20.8860   29.6300  -15.1050 C.2    47  GLU47       0.2260
     48  O        -20.5630   29.2860  -13.9570 O.2    47  GLU47      -0.2867
     49  CB       -20.8890   32.0580  -15.8300 C.3    47  GLU47       0.0388
     50  CG       -21.3680   32.4240  -14.4020 C.3    47  GLU47       0.1160
     51  CD       -22.1150   33.7530  -14.3730 C.2    47  GLU47       0.3649
     52  OE1      -21.5530   34.7530  -14.8350 O.co2  47  GLU47      -0.2457
     53  OE2      -23.2740   33.7860  -13.9010 O.co2  47  GLU47      -0.2457
     54  N        -18.7480   26.6370  -14.1540 N.3    50  LEU50      -0.1231
     55  CA       -17.8540   26.9300  -13.0320 C.3    50  LEU50       0.1693
     56  C        -18.5640   26.8830  -11.6880 C.2    50  LEU50       0.2592
     57  O        -17.9680   26.4780  -10.6920 O.2    50  LEU50      -0.2718
     58  CB       -17.1620   28.2950  -13.2310 C.3    50  LEU50       0.0284
     59  CG       -16.3140   28.4170  -14.5160 C.3    50  LEU50       0.0019
     60  CD1      -15.7880   29.8690  -14.6930 C.3    50  LEU50       0.0001
     61  CD2      -15.1720   27.3900  -14.4910 C.3    50  LEU50       0.0001
     62  N        -19.8260   27.3210  -11.6440 N.am   51  HIS51      -0.1976
     63  CA       -20.6060   27.3250  -10.3800 C.3    51  HIS51       0.1656
     64  C        -21.0310   25.9020  -10.0430 C.2    51  HIS51       0.2291
     65  O        -21.0770   25.5010   -8.8580 O.2    51  HIS51      -0.2864
     66  CB       -21.8330   28.2460  -10.4870 C.3    51  HIS51       0.0771
     67  CG       -21.5190   29.7030  -10.3660 C.ar   51  HIS51       0.0820
     68  ND1      -22.0720   30.4980   -9.3850 N.ar   51  HIS51      -0.2267
     69  CD2      -20.7420   30.5240  -11.1180 C.ar   51  HIS51       0.1154
     70  CE1      -21.6350   31.7360   -9.5200 C.ar   51  HIS51       0.1986
     71  NE2      -20.8220   31.7790  -10.5620 N.ar   51  HIS51      -0.2212
     72  N        -19.2370   23.3250  -10.7600 N.3    53  ARG53      -0.1231
     73  CA       -18.0690   22.4250  -10.7600 C.3    53  ARG53       0.1694
     74  C        -17.7930   21.7960   -9.3990 C.2    53  ARG53       0.2591
     75  O        -17.2300   20.7020   -9.3110 O.2    53  ARG53      -0.2718
     76  CB       -16.8190   23.1080  -11.3030 C.3    53  ARG53       0.0321
     77  CG       -15.8150   22.0960  -11.8140 C.3    53  ARG53       0.0489
     78  CD       -14.4160   22.6600  -12.0170 C.3    53  ARG53       0.2205
     79  NE       -13.5790   21.6470  -12.6900 N.pl3  53  ARG53      -0.0865
     80  CZ       -12.2480   21.6570  -12.7180 C.cat  53  ARG53       0.5346
     81  NH1      -11.5490   22.6060  -12.0950 N.pl3  53  ARG53       0.1354
     82  NH2      -11.6150   20.7060  -13.3770 N.pl3  53  ARG53       0.1354
     83  N        -18.2490   22.4540   -8.3400 N.am   54  ARG54      -0.1980
     84  CA       -18.1310   21.8900   -6.9870 C.3    54  ARG54       0.1597
     85  C        -18.7440   20.5100   -6.8740 C.2    54  ARG54       0.2287
     86  O        -18.3620   19.7200   -5.9880 O.2    54  ARG54      -0.2864
     87  CB       -18.8070   22.8200   -5.9810 C.3    54  ARG54       0.0334
     88  CG       -20.3120   22.7540   -5.9560 C.3    54  ARG54       0.0492
     89  CD       -20.8880   23.9800   -5.2440 C.3    54  ARG54       0.2205
     90  NE       -20.7920   25.1770   -6.0780 N.pl3  54  ARG54      -0.0865
     91  CZ       -21.1480   26.3820   -5.6500 C.cat  54  ARG54       0.5346
     92  NH1      -21.5910   26.5320   -4.3900 N.pl3  54  ARG54       0.1354
     93  NH2      -21.0450   27.4270   -6.4550 N.pl3  54  ARG54       0.1354
     94  N        -15.9380   18.3190   -8.3480 N.3    57  ILE57      -0.1245
     95  CA       -14.7360   18.4130   -7.5240 C.3    57  ILE57       0.1561
     96  C        -14.8510   17.5160   -6.3130 C.2    57  ILE57       0.2260
     97  O        -13.8640   16.8990   -5.8920 O.2    57  ILE57      -0.2867
     98  CB       -14.4670   19.8910   -7.0670 C.3    57  ILE57       0.0252
     99  CG1      -14.0190   20.7410   -8.2610 C.3    57  ILE57       0.0019
    100  CG2      -13.3800   19.9540   -5.9930 C.3    57  ILE57       0.0019
    101  CD1      -14.0670   22.2650   -8.0310 C.3    57  ILE57       0.0001
    102  N        -17.9570   21.7960    1.1570 N.3    73  TRP73      -0.1241
    103  CA       -17.5870   22.7410    0.1180 C.3    73  TRP73       0.1605
    104  C        -17.5070   24.1410    0.6800 C.2    73  TRP73       0.2264
    105  O        -18.4410   24.6150    1.3130 O.2    73  TRP73      -0.2867
    106  CB       -18.6090   22.7660   -1.0120 C.3    73  TRP73       0.0550
    107  CG       -18.3350   23.8760   -1.9750 C.ar   73  TRP73       0.0003
    108  CD1      -18.9590   25.0800   -2.0490 C.ar   73  TRP73       0.0946
    109  CD2      -17.3320   23.8690   -2.9840 C.ar   73  TRP73       0.0152
    110  NE1      -18.4150   25.8300   -3.0760 N.ar   73  TRP73      -0.2442
    111  CE2      -17.4170   25.0960   -3.6720 C.ar   73  TRP73       0.0810
    112  CE3      -16.3770   22.9230   -3.3920 C.ar   73  TRP73       0.0012
    113  CZ2      -16.5620   25.4190   -4.7480 C.ar   73  TRP73       0.0191
    114  CZ3      -15.5400   23.2310   -4.4860 C.ar   73  TRP73       0.0001
    115  CH2      -15.6270   24.4630   -5.1370 C.ar   73  TRP73       0.0015
    116  N        -16.7990   27.9740   -1.0180 N.3    75  ASP75      -0.1225
    117  CA       -16.5880   28.8110   -2.1960 C.3    75  ASP75       0.1805
    118  C        -15.2180   29.4600   -2.0620 C.2    75  ASP75       0.2598
    119  O        -14.7230   29.6940   -0.9490 O.2    75  ASP75      -0.2718
    120  CB       -17.6220   29.9540   -2.2800 C.3    75  ASP75       0.1424
    121  CG       -18.8350   29.6380   -3.1390 C.2    75  ASP75       0.3668
    122  OD1      -18.8960   28.5890   -3.8170 O.co2  75  ASP75      -0.2456
    123  OD2      -19.7540   30.4890   -3.1290 O.co2  75  ASP75      -0.2456
    124  N        -14.6400   29.7920   -3.2010 N.am   76  SER76      -0.1938
    125  CA       -13.3430   30.4240   -3.2440 C.3    76  SER76       0.2055
    126  C        -13.3650   31.8400   -2.6720 C.2    76  SER76       0.2643
    127  O        -12.2980   32.4110   -2.4160 O.2    76  SER76      -0.2714
    128  CB       -12.8270   30.4280   -4.6960 C.3    76  SER76       0.2130
    129  OG       -13.7330   31.0870   -5.5570 O.3    76  SER76      -0.2179
    130  N        -14.5560   32.4190   -2.4840 N.am   77  ASP77      -0.1971
    131  CA       -14.6700   33.7320   -1.7920 C.3    77  ASP77       0.1709
    132  C        -15.1580   33.6330   -0.3310 C.2    77  ASP77       0.2293
    133  O        -15.7240   34.5790    0.2200 O.2    77  ASP77      -0.2864
    134  CB       -15.5260   34.7290   -2.6000 C.3    77  ASP77       0.1436
    135  CG       -17.0050   34.3540   -2.6160 C.2    77  ASP77       0.3671
    136  OD1      -17.8390   35.2690   -2.5750 O.co2  77  ASP77      -0.2456
    137  OD2      -17.3310   33.1430   -2.6590 O.co2  77  ASP77      -0.2456
    138  N        -29.9090   32.7810    3.7150 N.3   107  GLU107     -0.1245
    139  CA       -29.2830   34.1070    3.6090 C.3   107  GLU107      0.1567
    140  C        -30.3500   35.1920    3.8120 C.2   107  GLU107      0.2260
    141  O        -30.2840   36.2530    3.1970 O.2   107  GLU107     -0.2867
    142  CB       -28.5700   34.2950    2.2380 C.3   107  GLU107      0.0388
    143  CG       -29.4710   34.0340    1.0080 C.3   107  GLU107      0.1160
    144  CD       -28.7780   34.2100   -0.3680 C.2   107  GLU107      0.3649
    145  OE1      -27.5260   34.1300   -0.4770 O.co2 107  GLU107     -0.2457
    146  OE2      -29.5140   34.4340   -1.3530 O.co2 107  GLU107     -0.2457
    147  N        -31.2500   36.6660   -2.1520 N.3   112  SER112     -0.1217
    148  CA       -32.2470   36.4820   -3.2180 C.3   112  SER112      0.1889
    149  C        -32.7980   35.0290   -3.3620 C.2   112  SER112      0.2288
    150  O        -33.5910   34.7480   -4.2850 O.2   112  SER112     -0.2866
    151  CB       -31.6310   36.9450   -4.5430 C.3   112  SER112      0.2089
    152  OG       -30.6790   35.9810   -5.0260 O.3   112  SER112     -0.2183
    153  N        -27.9280   29.2800    0.5310 N.3   116  ASN116     -0.1225
    154  CA       -26.6580   29.7340   -0.0540 C.3   116  ASN116      0.1785
    155  C        -25.6770   28.5640    0.0120 C.2   116  ASN116      0.2598
    156  O        -25.2480   28.1670    1.0820 O.2   116  ASN116     -0.2718
    157  CB       -26.1490   31.0090    0.6610 C.3   116  ASN116      0.1169
    158  CG       -24.8670   31.5550    0.0510 C.2   116  ASN116      0.2627
    159  OD1      -23.8250   30.8920    0.0530 O.2   116  ASN116     -0.2716
    160  ND2      -24.9370   32.7670   -0.4510 N.am  116  ASN116     -0.0877
    161  N        -25.3850   27.9430   -1.1290 N.am  117  THR117     -0.1939
    162  CA       -24.5110   26.7470   -1.1310 C.3   117  THR117      0.2028
    163  C        -22.9950   27.0410   -1.1820 C.2   117  THR117      0.2642
    164  O        -22.1750   26.1290   -1.4130 O.2   117  THR117     -0.2714
    165  CB       -24.8400   25.8470   -2.3030 C.3   117  THR117      0.1808
    166  OG1      -24.8720   26.6530   -3.4810 O.3   117  THR117     -0.2208
    167  CG2      -26.1790   25.1390   -2.0930 C.3   117  THR117      0.0379
    168  N        -22.6360   28.3000   -0.9640 N.am  118  GLY118     -0.1954
    169  CA       -21.2460   28.7230   -0.8360 C.3   118  GLY118      0.1869
    170  C        -20.5780   28.0960    0.3660 C.2   118  GLY118      0.2309
    171  O        -19.3610   27.9920    0.4190 O.2   118  GLY118     -0.2863
    172  N        -29.2370   30.7060  -13.3990 N.3   145  PHE145     -0.1228
    173  CA       -28.8540   31.1860  -12.1020 C.3   145  PHE145      0.1721
    174  C        -29.9520   30.8800  -11.0760 C.2   145  PHE145      0.2437
    175  O        -31.1410   31.0440  -11.3960 O.2   145  PHE145     -0.2733
    176  CB       -28.6640   32.6720  -12.2350 C.3   145  PHE145      0.0547
    177  CG       -28.2740   33.3540  -10.9770 C.ar  145  PHE145     -0.0202
    178  CD1      -26.9250   33.5090  -10.6570 C.ar  145  PHE145     -0.0042
    179  CD2      -29.2490   33.9150  -10.1440 C.ar  145  PHE145     -0.0042
    180  CE1      -26.5470   34.1830   -9.4890 C.ar  145  PHE145     -0.0003
    181  CE2      -28.8870   34.5700   -8.9790 C.ar  145  PHE145     -0.0003
    182  CZ       -27.5360   34.7160   -8.6550 C.ar  145  PHE145     -0.0000
    183  N        -29.5690   30.5140   -9.8260 N.am  146  PRO146     -0.2729
    184  CA       -28.2250   30.3110   -9.2970 C.3   146  PRO146      0.1401
    185  C        -27.6520   28.8930   -9.3850 C.2   146  PRO146      0.2269
    186  O        -26.9200   28.4730   -8.4820 O.2   146  PRO146     -0.2865
    187  CB       -28.3690   30.7470   -7.8370 C.3   146  PRO146      0.0296
    188  CG       -29.7600   30.3600   -7.4740 C.3   146  PRO146      0.0237
    189  CD       -30.5790   30.4190   -8.7620 C.3   146  PRO146      0.0939
    190  N        -26.0860   25.3070   -9.4460 N.3   148  GLU148     -0.1231
    191  CA       -26.0470   24.2190   -8.4690 C.3   148  GLU148      0.1699
    192  C        -26.8460   24.5960   -7.1990 C.2   148  GLU148      0.2592
    193  O        -27.4870   23.7470   -6.5700 O.2   148  GLU148     -0.2718
    194  CB       -24.5880   23.7770   -8.1550 C.3   148  GLU148      0.0402
    195  CG       -24.4100   22.9540   -6.8630 C.3   148  GLU148      0.1161
    196  CD       -24.3380   23.7780   -5.5660 C.2   148  GLU148      0.3649
    197  OE1      -24.2100   25.0370   -5.5910 O.co2 148  GLU148     -0.2457
    198  OE2      -24.3820   23.1470   -4.4830 O.co2 148  GLU148     -0.2457
    199  N        -26.8360   25.8700   -6.8410 N.am  149  GLN149     -0.1979
    200  CA       -27.5910   26.2910   -5.6420 C.3   149  GLN149      0.1601
    201  C        -29.0900   26.0130   -5.8020 C.2   149  GLN149      0.2287
    202  O        -29.7150   25.4790   -4.8990 O.2   149  GLN149     -0.2864
    203  CB       -27.3650   27.7570   -5.3740 C.3   149  GLN149      0.0394
    204  CG       -28.1140   28.2930   -4.1720 C.3   149  GLN149      0.0908
    205  CD       -27.5820   29.6360   -3.8130 C.2   149  GLN149      0.2608
    206  OE1      -26.4930   29.7300   -3.2330 O.2   149  GLN149     -0.2717
    207  NE2      -28.3100   30.6950   -4.1780 N.am  149  GLN149     -0.0878
    208  N        -17.9900   35.0380    4.1900 N.3   190  HIS190     -0.1241
    209  CA       -18.3030   34.8940    2.7660 C.3   190  HIS190      0.1621
    210  C        -18.4280   36.2790    2.0930 C.2   190  HIS190      0.2264
    211  O        -19.1930   37.1550    2.5410 O.2   190  HIS190     -0.2867
    212  CB       -19.6040   34.0830    2.6490 C.3   190  HIS190      0.0745
    213  CG       -19.9100   33.5710    1.2710 C.ar  190  HIS190      0.0817
    214  ND1      -20.9020   32.6460    1.0430 N.ar  190  HIS190     -0.2268
    215  CD2      -19.3980   33.8890    0.0520 C.ar  190  HIS190      0.1154
    216  CE1      -20.9660   32.3860   -0.2510 C.ar  190  HIS190      0.1986
    217  NE2      -20.0660   33.1330   -0.8770 N.ar  190  HIS190     -0.2212
    218  N        -19.7500   37.1370   -0.6180 N.3   192  CYS192     -0.1235
    219  CA       -20.7710   37.0270   -1.6380 C.3   192  CYS192      0.1677
    220  C        -21.1980   38.4050   -2.1660 C.2   192  CYS192      0.2270
    221  O        -21.3960   39.3230   -1.3820 O.2   192  CYS192     -0.2867
    222  CB       -21.9820   36.2730   -1.0850 C.3   192  CYS192      0.0956
    223  SG       -23.2700   36.1640   -2.3020 S.3   192  CYS192     -0.0801
    224  N        -13.0490   41.8580   -3.6040 N.3   198  ARG198     -0.1245
    225  CA       -12.5770   40.6690   -2.9000 C.3   198  ARG198      0.1563
    226  C        -11.0730   40.7250   -2.6660 C.2   198  ARG198      0.2260
    227  O        -10.6130   40.4370   -1.5640 O.2   198  ARG198     -0.2867
    228  CB       -12.9630   39.4040   -3.6740 C.3   198  ARG198      0.0307
    229  CG       -14.4520   39.1060   -3.5710 C.3   198  ARG198      0.0489
    230  CD       -14.9390   38.0970   -4.5540 C.3   198  ARG198      0.2205
    231  NE       -16.3970   38.0840   -4.5460 N.pl3 198  ARG198     -0.0865
    232  CZ       -17.1720   37.1730   -5.1380 C.cat 198  ARG198      0.5346
    233  NH1      -16.6540   36.1520   -5.8010 N.pl3 198  ARG198      0.1354
    234  NH2      -18.4890   37.2860   -5.0600 N.pl3 198  ARG198      0.1354
@<TRIPOS>BOND
     1    45    46    1
     2    25    24   ar
     3    25    23   ar
     4    24    22   ar
     5    23    21   ar
     6    46    49    1
     7    46    47    1
     8    49    50    1
     9    22    20   ar
    10    47    48    2
    11    21    20   ar
    12    52    51   ar
    13    60    59    1
    14    20    19    1
    15    59    61    1
    16    59    58    1
    17    50    51    1
    18    51    53   ar
    19    54    55    1
    20    30    31    1
    21    30    27    1
    22    31    32    1
    23   172   173    1
    24    82    80    1
    25    32    26    1
    26    19    16    1
    27    58    55    1
    28    27    26    1
    29    27    28    1
    30    55    56    1
    31    26    17   am
    32    80    79    2
    33    80    81    1
    34    79    78    1
    35    17    18    2
    36    17    16    1
    37   176   173    1
    38   176   177    1
    39    16    15    1
    40   173   174    1
    41    78    77    1
    42    77    76    1
    43    28    29    2
    44    56    62   am
    45    56    57    2
    46    62    63    1
    47   175   174    2
    48    76    73    1
    49    69    71   ar
    50    69    67   ar
    51   174   183   am
    52   177   178   ar
    53   177   179   ar
    54    15     7   am
    55    72    73    1
    56    73    74    1
    57   178   180   ar
    58    71    70   ar
    59    66    63    1
    60    66    67    1
    61    63    64    1
    62    67    68   ar
    63   179   181   ar
    64    64    65    2
    65     8     7    2
    66     7     6    1
    67   183   184    1
    68   183   189    1
    69    70    68   ar
    70   180   182   ar
    71    14    12   ar
    72    14    13   ar
    73   190   191    1
    74    74    75    2
    75    74    83   am
    76   185   184    1
    77   185   186    2
    78   184   187    1
    79    12    10   ar
    80   181   182   ar
    81   189   188    1
    82    13    11   ar
    83     6     5    1
    84     6     9    1
    85   191   194    1
    86   191   192    1
    87    10    11   ar
    88    10     9    1
    89    94    95    1
    90    83    84    1
    91    99   101    1
    92    99    98    1
    93   194   195    1
    94     5     3   am
    95   187   188    1
    96    95    98    1
    97    95    96    1
    98   192   199   am
    99   192   193    2
   100    98   100    1
   101    84    85    1
   102    84    87    1
   103     3     4    2
   104     3     2    1
   105    85    86    2
   106   195   196    1
   107   199   200    1
   108    44    43    1
   109    93    91    1
   110    42    43   ar
   111    42    40   ar
   112    96    97    2
   113     2     1    1
   114    90    91    2
   115    90    89    1
   116    87    88    1
   117    43    41   ar
   118    88    89    1
   119   201   200    1
   120   201   202    2
   121   233   232    1
   122    91    92    1
   123   200   203    1
   124   197   196   ar
   125    40    38   ar
   126   196   198   ar
   127   129   128    1
   128   203   204    1
   129   232   234    1
   130   232   231    2
   131   115   113   ar
   132   115   114   ar
   133   152   151    1
   134   113   111   ar
   135    41    39   ar
   136   128   125    1
   137    33    34    1
   138   230   231    1
   139   230   229    1
   140   151   148    1
   141   114   112   ar
   142   150   149    2
   143    38    39   ar
   144    38    37    1
   145   207   205   am
   146   204   205    1
   147   122   121   ar
   148   205   206    2
   149   228   229    1
   150   228   225    1
   151   111   110   ar
   152   111   109   ar
   153   224   225    1
   154   166   165    1
   155    34    37    1
   156    34    35    1
   157   112   109   ar
   158   149   148    1
   159   125   124    1
   160   125   126    1
   161   148   147    1
   162   124   118   am
   163    35    36    2
   164   121   123   ar
   165   121   120    1
   166   110   108   ar
   167   109   107   ar
   168   225   226    1
   169   126   130   am
   170   126   127    2
   171   226   227    2
   172   137   135   ar
   173   135   134    1
   174   135   136   ar
   175   134   131    1
   176   130   131    1
   177   165   167    1
   178   165   162    1
   179   223   222    1
   180   120   117    1
   181   117   118    1
   182   117   116    1
   183   220   219    1
   184   220   221    2
   185   118   119    2
   186   108   107   ar
   187   107   106    1
   188   131   132    1
   189   219   222    1
   190   219   218    1
   191   164   163    2
   192   146   144   ar
   193   163   162    1
   194   163   168   am
   195   162   161    1
   196   161   155   am
   197   106   103    1
   198   168   169    1
   199   217   216   ar
   200   217   215   ar
   201   169   170    1
   202   145   144   ar
   203   160   158   am
   204   144   143    1
   205   132   133    2
   206   216   214   ar
   207   154   155    1
   208   154   153    1
   209   154   157    1
   210   155   156    2
   211   158   159    2
   212   158   157    1
   213   215   213   ar
   214   103   104    1
   215   103   102    1
   216   170   171    2
   217   104   105    2
   218   143   142    1
   219   214   213   ar
   220   213   212    1
   221   210   211    2
   222   210   209    1
   223   142   139    1
   224   212   209    1
   225   209   208    1
   226   141   140    2
   227   139   138    1
   228   139   140    1
