@<TRIPOS>MOLECULE
tmp/2p73A00.pdb
 198 193 0 0 0
SMALL
GASTEIGER

@<TRIPOS>ATOM
      1  N         23.7610   13.9470    4.7650 N.3     9  GLY9       -0.1210
      2  CA        22.6330   14.0320    3.8620 C.3     9  GLY9        0.1956
      3  C         22.6220   12.8160    2.9690 C.2     9  GLY9        0.2612
      4  O         23.6730   12.2330    2.6930 O.2     9  GLY9       -0.2717
      5  N         21.4350   12.4290    2.5220 N.am   10  HIS10      -0.1961
      6  CA        21.2920   11.2510    1.6840 C.3    10  HIS10       0.1787
      7  C         20.0570   11.3400    0.8140 C.2    10  HIS10       0.2620
      8  O         18.9550   11.6080    1.3090 O.2    10  HIS10      -0.2715
      9  CB        21.2320    9.9800    2.5390 C.3    10  HIS10       0.0785
     10  CG        21.2390    8.7150    1.7410 C.ar   10  HIS10       0.0821
     11  ND1       22.4030    8.1060    1.3170 N.ar   10  HIS10      -0.2267
     12  CD2       20.2220    7.9390    1.2900 C.ar   10  HIS10       0.1154
     13  CE1       22.1040    7.0080    0.6440 C.ar   10  HIS10       0.1986
     14  NE2       20.7870    6.8850    0.6130 N.ar   10  HIS10      -0.2212
     15  N         20.2610   11.1160   -0.4820 N.am   11  PHE11      -0.1960
     16  CA        19.1760   10.9110   -1.4290 C.3    11  PHE11       0.1756
     17  C         19.1900    9.4570   -1.8830 C.2    11  PHE11       0.2461
     18  O         20.2270    8.9650   -2.3340 O.2    11  PHE11      -0.2730
     19  CB        19.3000   11.8440   -2.6490 C.3    11  PHE11       0.0574
     20  CG        18.2990   11.5450   -3.7330 C.ar   11  PHE11      -0.0200
     21  CD1       18.5830   10.5980   -4.7250 C.ar   11  PHE11      -0.0042
     22  CD2       17.0540   12.1730   -3.7390 C.ar   11  PHE11      -0.0042
     23  CE1       17.6420   10.2940   -5.7200 C.ar   11  PHE11      -0.0003
     24  CE2       16.1030   11.8870   -4.7340 C.ar   11  PHE11      -0.0003
     25  CZ        16.4020   10.9420   -5.7280 C.ar   11  PHE11      -0.0000
     26  N         18.0370    8.7670   -1.7970 N.am   12  PRO12      -0.2727
     27  CA        16.7480    9.2630   -1.3090 C.3    12  PRO12       0.1402
     28  C         16.6260    9.2550    0.2190 C.2    12  PRO12       0.2269
     29  O         17.2280    8.4100    0.8970 O.2    12  PRO12      -0.2865
     30  CB        15.7460    8.2800   -1.9250 C.3    12  PRO12       0.0296
     31  CG        16.4910    7.0030   -2.0120 C.3    12  PRO12       0.0237
     32  CD        17.9480    7.3640   -2.2510 C.3    12  PRO12       0.0939
     33  N         18.9160    2.8010    6.3540 N.3    17  TYR17      -0.1241
     34  CA        20.1740    2.8770    7.0640 C.3    17  TYR17       0.1605
     35  C         20.6300    4.3190    7.2210 C.2    17  TYR17       0.2264
     36  O         21.3050    4.6400    8.1790 O.2    17  TYR17      -0.2867
     37  CB        21.2660    2.0280    6.3880 C.3    17  TYR17       0.0534
     38  CG        21.9140    2.6420    5.1620 C.ar   17  TYR17      -0.0201
     39  CD1       22.9720    3.5540    5.2810 C.ar   17  TYR17      -0.0009
     40  CD2       21.4850    2.3020    3.8870 C.ar   17  TYR17      -0.0009
     41  CE1       23.5700    4.1270    4.1580 C.ar   17  TYR17       0.0417
     42  CE2       22.0810    2.8620    2.7540 C.ar   17  TYR17       0.0417
     43  CZ        23.1240    3.7680    2.8990 C.ar   17  TYR17       0.1957
     44  OH        23.7010    4.3090    1.7790 O.3    17  TYR17      -0.2866
     45  N         24.9260    9.7630  -10.0570 N.3    48  GLU48      -0.1245
     46  CA        25.8370    9.2980   -9.0130 C.3    48  GLU48       0.1567
     47  C         26.9700   10.2770   -8.7010 C.2    48  GLU48       0.2260
     48  O         27.1940   10.6180   -7.5230 O.2    48  GLU48      -0.2867
     49  CB        26.4150    7.9280   -9.3610 C.3    48  GLU48       0.0388
     50  CG        27.3440    7.3590   -8.2860 C.3    48  GLU48       0.1160
     51  CD        27.8980    6.0010   -8.6660 C.2    48  GLU48       0.3649
     52  OE1       27.1450    5.0030   -8.5480 O.co2  48  GLU48      -0.2457
     53  OE2       29.0780    5.9310   -9.0850 O.co2  48  GLU48      -0.2457
     54  N         25.5780   13.2340   -6.7540 N.3    51  LEU51      -0.1231
     55  CA        25.2600   12.8990   -5.3620 C.3    51  LEU51       0.1693
     56  C         26.5260   12.7960   -4.5060 C.2    51  LEU51       0.2592
     57  O         26.5360   13.2150   -3.3520 O.2    51  LEU51      -0.2718
     58  CB        24.4370   11.6100   -5.2680 C.3    51  LEU51       0.0284
     59  CG        23.0820   11.5780   -5.9930 C.3    51  LEU51       0.0019
     60  CD1       22.5510   10.1580   -5.9840 C.3    51  LEU51       0.0001
     61  CD2       22.0690   12.5280   -5.3550 C.3    51  LEU51       0.0001
     62  N         27.5950   12.2610   -5.0870 N.am   52  HIS52      -0.1976
     63  CA        28.8720   12.1810   -4.4000 C.3    52  HIS52       0.1656
     64  C         29.5430   13.5310   -4.1900 C.2    52  HIS52       0.2291
     65  O         30.2540   13.7040   -3.2150 O.2    52  HIS52      -0.2864
     66  CB        29.8250   11.2380   -5.1270 C.3    52  HIS52       0.0771
     67  CG        29.5780    9.7950   -4.8230 C.ar   52  HIS52       0.0820
     68  ND1       30.4740    9.0210   -4.1130 N.ar   52  HIS52      -0.2267
     69  CD2       28.5330    8.9860   -5.1250 C.ar   52  HIS52       0.1154
     70  CE1       30.0010    7.7880   -4.0180 C.ar   52  HIS52       0.1986
     71  NE2       28.8220    7.7440   -4.6160 N.ar   52  HIS52      -0.2212
     72  N         27.7740   16.2260   -3.7330 N.3    54  ARG54      -0.1231
     73  CA        26.7780   17.0300   -2.9870 C.3    54  ARG54       0.1694
     74  C         27.2250   17.5610   -1.6190 C.2    54  ARG54       0.2591
     75  O         26.7290   18.5940   -1.1560 O.2    54  ARG54      -0.2718
     76  CB        25.4050   16.3200   -2.8700 C.3    54  ARG54       0.0321
     77  CG        24.2740   17.3190   -3.0610 C.3    54  ARG54       0.0489
     78  CD        22.8600   16.8140   -2.7320 C.3    54  ARG54       0.2205
     79  NE        21.9340   17.9500   -2.7800 N.pl3  54  ARG54      -0.0865
     80  CZ        20.7070   17.9810   -2.2580 C.cat  54  ARG54       0.5346
     81  NH1       20.2010   16.9190   -1.6340 N.pl3  54  ARG54       0.1354
     82  NH2       19.9790   19.0880   -2.3800 N.pl3  54  ARG54       0.1354
     83  N         28.1580   16.8580   -0.9880 N.am   55  ARG55      -0.1980
     84  CA        28.7290   17.2920    0.2750 C.3    55  ARG55       0.1597
     85  C         29.3810   18.6550    0.2010 C.2    55  ARG55       0.2287
     86  O         29.4880   19.3360    1.2190 O.2    55  ARG55      -0.2864
     87  CB        29.7340   16.2630    0.7820 C.3    55  ARG55       0.0334
     88  CG        31.1450   16.3020    0.1600 C.3    55  ARG55       0.0492
     89  CD        31.8650   14.9940    0.4930 C.3    55  ARG55       0.2205
     90  NE        31.2390   13.8950   -0.2300 N.pl3  55  ARG55      -0.0865
     91  CZ        31.5030   12.6040   -0.0680 C.cat  55  ARG55       0.5346
     92  NH1       32.3800   12.1900    0.8340 N.pl3  55  ARG55       0.1354
     93  NH2       30.8680   11.7220   -0.8190 N.pl3  55  ARG55       0.1354
     94  N         26.2460   20.9330    0.4600 N.3    58  ILE58      -0.1245
     95  CA        25.5810   20.8540    1.7620 C.3    58  ILE58       0.1561
     96  C         26.3860   21.6170    2.8120 C.2    58  ILE58       0.2260
     97  O         25.8170   22.2130    3.7170 O.2    58  ILE58      -0.2867
     98  CB        25.3450   19.3600    2.1970 C.3    58  ILE58       0.0252
     99  CG1       24.3890   18.6470    1.2180 C.3    58  ILE58       0.0019
    100  CG2       24.8180   19.2580    3.6450 C.3    58  ILE58       0.0019
    101  CD1       24.5130   17.0960    1.2110 C.3    58  ILE58       0.0001
    102  N         32.0960   16.5510    7.6430 N.3    74  TRP74      -0.1241
    103  CA        31.2870   15.7340    6.7770 C.3    74  TRP74       0.1605
    104  C         31.4180   14.2720    7.1840 C.2    74  TRP74       0.2264
    105  O         32.5280   13.7560    7.3370 O.2    74  TRP74      -0.2867
    106  CB        31.6870   15.8770    5.3050 C.3    74  TRP74       0.0550
    107  CG        30.9320   14.8780    4.4610 C.ar   74  TRP74       0.0003
    108  CD1       31.3910   13.6530    3.9980 C.ar   74  TRP74       0.0946
    109  CD2       29.5830   14.9940    4.0060 C.ar   74  TRP74       0.0152
    110  NE1       30.4030   13.0250    3.2770 N.ar   74  TRP74      -0.2442
    111  CE2       29.2790   13.8120    3.2830 C.ar   74  TRP74       0.0810
    112  CE3       28.5930   15.9810    4.1380 C.ar   74  TRP74       0.0012
    113  CZ2       28.0190   13.5970    2.6920 C.ar   74  TRP74       0.0191
    114  CZ3       27.3500   15.7640    3.5430 C.ar   74  TRP74       0.0001
    115  CH2       27.0800   14.5920    2.8200 C.ar   74  TRP74       0.0015
    116  N         29.6910   10.6630    5.7980 N.3    76  ASP76      -0.1225
    117  CA        28.8460    9.9610    4.8570 C.3    76  ASP76       0.1805
    118  C         27.6490    9.3700    5.5930 C.2    76  ASP76       0.2598
    119  O         27.7380    9.0110    6.7810 O.2    76  ASP76      -0.2718
    120  CB        29.6240    8.8410    4.2020 C.3    76  ASP76       0.1424
    121  CG        30.3190    9.2630    2.9020 C.2    76  ASP76       0.3668
    122  OD1       30.2320   10.4240    2.4670 O.co2  76  ASP76      -0.2456
    123  OD2       30.9700    8.4080    2.2860 O.co2  76  ASP76      -0.2456
    124  N         26.5440    9.2510    4.8630 N.am   77  SER77      -0.1938
    125  CA        25.3260    8.6080    5.3230 C.3    77  SER77       0.2055
    126  C         25.4670    7.1500    5.7630 C.2    77  SER77       0.2643
    127  O         24.5570    6.6060    6.4100 O.2    77  SER77      -0.2714
    128  CB        24.2430    8.7190    4.2350 C.3    77  SER77       0.2130
    129  OG        24.6610    8.1010    3.0350 O.3    77  SER77      -0.2179
    130  N         26.5790    6.5010    5.4180 N.am   78  ASP78      -0.1971
    131  CA        26.8320    5.1290    5.8980 C.3    78  ASP78       0.1709
    132  C         27.9180    5.0980    6.9660 C.2    78  ASP78       0.2293
    133  O         28.5720    4.0700    7.1880 O.2    78  ASP78      -0.2864
    134  CB        27.1900    4.2140    4.7320 C.3    78  ASP78       0.1436
    135  CG        28.3670    4.7230    3.9350 C.2    78  ASP78       0.3671
    136  OD1       28.6580    5.9330    4.0150 O.co2  78  ASP78      -0.2456
    137  OD2       29.0280    3.9160    3.2480 O.co2  78  ASP78      -0.2456
    138  N         40.1910    8.7580    1.8720 N.3   117  ASN117     -0.1240
    139  CA        38.7880    8.4260    1.8890 C.3   117  ASN117      0.1653
    140  C         38.0620    9.6010    2.5230 C.2   117  ASN117      0.2266
    141  O         38.2690    9.8980    3.7140 O.2   117  ASN117     -0.2867
    142  CB        38.5640    7.1720    2.7200 C.3   117  ASN117      0.1155
    143  CG        37.1310    6.7060    2.6950 C.2   117  ASN117      0.2627
    144  OD1       36.2550    7.3380    3.2650 O.2   117  ASN117     -0.2716
    145  ND2       36.8840    5.5910    2.0280 N.am  117  ASN117     -0.0877
    146  N         34.9170    8.7720  -11.2630 N.3   146  PHE146     -0.1241
    147  CA        35.2720    8.1120  -10.0130 C.3   146  PHE146      0.1605
    148  C         36.7470    8.3130   -9.6830 C.2   146  PHE146      0.2264
    149  O         37.6200    8.0370  -10.5050 O.2   146  PHE146     -0.2867
    150  CB        34.9480    6.6180  -10.0850 C.3   146  PHE146      0.0534
    151  CG        35.0590    5.9100   -8.7650 C.ar  146  PHE146     -0.0203
    152  CD1       34.0560    6.0240   -7.8160 C.ar  146  PHE146     -0.0042
    153  CD2       36.1650    5.1300   -8.4730 C.ar  146  PHE146     -0.0042
    154  CE1       34.1550    5.3730   -6.6010 C.ar  146  PHE146     -0.0003
    155  CE2       36.2700    4.4770   -7.2600 C.ar  146  PHE146     -0.0003
    156  CZ        35.2630    4.5980   -6.3230 C.ar  146  PHE146     -0.0000
    157  N         32.6270    3.3010    9.2680 N.3   191  HIS191     -0.1241
    158  CA        32.2080    3.5400    7.8720 C.3   191  HIS191      0.1621
    159  C         31.8720    2.2140    7.2030 C.2   191  HIS191      0.2264
    160  O         32.7370    1.3470    7.0670 O.2   191  HIS191     -0.2867
    161  CB        33.3380    4.2010    7.0710 C.3   191  HIS191      0.0745
    162  CG        32.9240    4.7830    5.7460 C.ar  191  HIS191      0.0817
    163  ND1       33.7670    5.5840    5.0110 N.ar  191  HIS191     -0.2268
    164  CD2       31.7630    4.7250    5.0440 C.ar  191  HIS191      0.1154
    165  CE1       33.1540    5.9800    3.9100 C.ar  191  HIS191      0.1986
    166  NE2       31.9330    5.4780    3.9030 N.ar  191  HIS191     -0.2212
    167  N         31.6630    1.4570    4.2510 N.3   193  CYS193     -0.1221
    168  CA        32.0780    1.8310    2.8920 C.3   193  CYS193      0.1808
    169  C         32.0720    0.6740    1.8720 C.2   193  CYS193      0.2601
    170  O         32.5410   -0.4430    2.1750 O.2   193  CYS193     -0.2717
    171  CB        33.4720    2.4300    2.9720 C.3   193  CYS193      0.0970
    172  SG        34.2040    2.7750    1.3830 S.3   193  CYS193     -0.0800
    173  N         31.5670    0.9560    0.6670 N.am  194  GLY194     -0.1957
    174  CA        31.6250    0.0020   -0.4520 C.3   194  GLY194      0.1869
    175  C         30.7770   -1.2600   -0.2970 C.2   194  GLY194      0.2309
    176  O         31.1870   -2.3500   -0.7260 O.2   194  GLY194     -0.2863
    177  N         22.9090   -1.1570   -0.3100 N.3   197  ARG197     -0.1245
    178  CA        21.8400   -0.5900    0.5180 C.3   197  ARG197      0.1563
    179  C         21.2100   -1.6350    1.4590 C.2   197  ARG197      0.2260
    180  O         20.8960   -1.3240    2.6180 O.2   197  ARG197     -0.2867
    181  CB        20.7730    0.0530   -0.3750 C.3   197  ARG197      0.0307
    182  CG        19.6970    0.8130    0.3620 C.3   197  ARG197      0.0489
    183  CD        18.4140    0.9100   -0.4760 C.3   197  ARG197      0.2205
    184  NE        18.3860    2.0990   -1.3300 N.pl3 197  ARG197     -0.0865
    185  CZ        18.2710    2.0950   -2.6600 C.cat 197  ARG197      0.5346
    186  NH1       18.1560    0.9490   -3.3350 N.pl3 197  ARG197      0.1354
    187  NH2       18.2620    3.2550   -3.3200 N.pl3 197  ARG197      0.1354
    188  N         23.9260   -2.6040    4.1070 N.3   200  ARG200     -0.1245
    189  CA        23.9830   -1.5210    5.1020 C.3   200  ARG200      0.1563
    190  C         22.7350   -1.5020    6.0020 C.2   200  ARG200      0.2260
    191  O         22.8420   -1.2850    7.2060 O.2   200  ARG200     -0.2867
    192  CB        24.1780   -0.1570    4.4200 C.3   200  ARG200      0.0307
    193  CG        25.5510    0.0080    3.7660 C.3   200  ARG200      0.0489
    194  CD        25.6310    1.2430    2.8930 C.3   200  ARG200      0.2205
    195  NE        26.9690    1.4280    2.3170 N.pl3 200  ARG200     -0.0865
    196  CZ        27.2430    2.2460    1.3100 C.cat 200  ARG200      0.5346
    197  NH1       26.2850    2.9720    0.7580 N.pl3 200  ARG200      0.1354
    198  NH2       28.4800    2.3230    0.8350 N.pl3 200  ARG200      0.1354
@<TRIPOS>BOND
     1   146   147    1
     2   149   148    2
     3   150   147    1
     4   150   151    1
     5    45    46    1
     6   147   148    1
     7    49    46    1
     8    49    50    1
     9    53    51   ar
    10    46    47    1
    11   151   153   ar
    12   151   152   ar
    13    47    48    2
    14    51    52   ar
    15    51    50    1
    16   153   155   ar
    17   152   154   ar
    18   155   156   ar
    19    54    55    1
    20   154   156   ar
    21    59    60    1
    22    59    61    1
    23    59    58    1
    24    25    23   ar
    25    25    24   ar
    26    23    21   ar
    27    55    58    1
    28    55    56    1
    29    66    67    1
    30    66    63    1
    31    69    67   ar
    32    69    71   ar
    33    62    56   am
    34    62    63    1
    35    67    68   ar
    36    24    22   ar
    37    21    20   ar
    38    71    70   ar
    39    56    57    2
    40    63    64    1
    41    64    65    2
    42    68    70   ar
    43    22    20   ar
    44    72    73    1
    45    20    19    1
    46   186   185    1
    47   187   185    1
    48    77    76    1
    49    77    78    1
    50    73    76    1
    51    73    74    1
    52    79    78    1
    53    79    80    2
    54   185   184    2
    55    19    16    1
    56    82    80    1
    57    18    17    2
    58    80    81    1
    59    32    31    1
    60    32    26    1
    61    31    30    1
    62    30    27    1
    63    17    26   am
    64    17    16    1
    65    26    27    1
    66    74    75    2
    67    74    83   am
    68    16    15    1
    69   184   183    1
    70    27    28    1
    71    83    84    1
    72    93    91    1
    73   176   175    2
    74    15     7   am
    75   183   182    1
    76   174   175    1
    77   174   173    1
    78   181   182    1
    79   181   178    1
    80   177   178    1
    81    90    91    2
    82    90    89    1
    83    91    92    1
    84    88    89    1
    85    88    87    1
    86    85    84    1
    87    85    86    2
    88    28    29    2
    89    84    87    1
    90    94    95    1
    91   178   179    1
    92    14    13   ar
    93    14    12   ar
    94    13    11   ar
    95   173   169   am
    96   197   196    1
    97     7     8    2
    98     7     6    1
    99   198   196    1
   100   101    99    1
   101    99    98    1
   102    12    10   ar
   103   196   195    2
   104    11    10   ar
   105   172   171    1
   106   179   180    2
   107     6     5    1
   108     6     9    1
   109    10     9    1
   110    95    98    1
   111    95    96    1
   112    44    43    1
   113   138   139    1
   114   169   170    2
   115   169   168    1
   116   139   140    1
   117   139   142    1
   118   145   143   am
   119    98   100    1
   120   123   121   ar
   121   195   194    1
   122   122   121   ar
   123     5     3   am
   124   140   141    2
   125   113   115   ar
   126   113   111   ar
   127     4     3    2
   128   143   142    1
   129   143   144    2
   130    42    43   ar
   131    42    40   ar
   132    96    97    2
   133   115   114   ar
   134   168   171    1
   135   168   167    1
   136   194   193    1
   137    43    41   ar
   138   121   120    1
   139     3     2    1
   140   129   128    1
   141   137   135   ar
   142   110   111   ar
   143   110   108   ar
   144   111   109   ar
   145   114   112   ar
   146   193   192    1
   147     2     1    1
   148    40    38   ar
   149   166   165   ar
   150   166   164   ar
   151   165   163   ar
   152   135   136   ar
   153   135   134    1
   154   108   107   ar
   155   109   112   ar
   156   109   107   ar
   157   188   189    1
   158    41    39   ar
   159   120   117    1
   160   128   125    1
   161   192   189    1
   162   107   106    1
   163   134   131    1
   164   117   118    1
   165   117   116    1
   166   124   125    1
   167   124   118   am
   168   163   162   ar
   169   164   162   ar
   170   189   190    1
   171    38    39   ar
   172    38    37    1
   173   106   103    1
   174   125   126    1
   175   130   126   am
   176   130   131    1
   177   118   119    2
   178   162   161    1
   179   126   127    2
   180   131   132    1
   181   190   191    2
   182    33    34    1
   183    37    34    1
   184   103   104    1
   185   103   102    1
   186   132   133    2
   187    34    35    1
   188   160   159    2
   189   161   158    1
   190   104   105    2
   191   159   158    1
   192    35    36    2
   193   158   157    1
