@<TRIPOS>MOLECULE
tmp/2p7aA00.pdb
 133 123 0 0 0
SMALL
GASTEIGER

@<TRIPOS>ATOM
      1  N         55.1850  -27.5450  -94.1760 N.3    35  LEU35      -0.1231
      2  CA        53.7390  -27.4500  -94.3500 C.3    35  LEU35       0.1693
      3  C         52.9390  -28.1620  -93.2540 C.2    35  LEU35       0.2592
      4  O         51.9480  -27.6190  -92.7500 O.2    35  LEU35      -0.2718
      5  CB        53.3490  -27.9870  -95.7260 C.3    35  LEU35       0.0284
      6  CG        53.8270  -27.1250  -96.8990 C.3    35  LEU35       0.0019
      7  CD1       53.5100  -27.8160  -98.2090 C.3    35  LEU35       0.0001
      8  CD2       53.1490  -25.7670  -96.8510 C.3    35  LEU35       0.0001
      9  N         53.3660  -29.3670  -92.8870 N.am   36  CYS36      -0.1970
     10  CA        52.6840  -30.1240  -91.8370 C.3    36  CYS36       0.1712
     11  C         52.8590  -29.4470  -90.4860 C.2    36  CYS36       0.2296
     12  O         52.0120  -29.5780  -89.6050 O.2    36  CYS36      -0.2864
     13  CB        53.2210  -31.5530  -91.7590 C.3    36  CYS36       0.0983
     14  SG        52.8230  -32.5520  -93.1870 S.3    36  CYS36      -0.0798
     15  N         53.2070  -26.1230  -90.1820 N.3    38  LEU38      -0.1231
     16  CA        52.3400  -24.9570  -90.3210 C.3    38  LEU38       0.1693
     17  C         50.8790  -25.3580  -90.0820 C.2    38  LEU38       0.2591
     18  O         50.1510  -24.6960  -89.3410 O.2    38  LEU38      -0.2718
     19  CB        52.4880  -24.3590  -91.7290 C.3    38  LEU38       0.0284
     20  CG        51.5980  -23.1770  -92.1390 C.3    38  LEU38       0.0019
     21  CD1       51.9460  -21.9610  -91.3020 C.3    38  LEU38       0.0001
     22  CD2       51.7900  -22.8600  -93.6200 C.3    38  LEU38       0.0001
     23  N         50.4620  -26.4530  -90.7100 N.am   39  ALA39      -0.1980
     24  CA        49.0930  -26.9330  -90.5760 C.3    39  ALA39       0.1597
     25  C         48.7780  -27.2570  -89.1240 C.2    39  ALA39       0.2287
     26  O         47.7170  -26.9100  -88.6230 O.2    39  ALA39      -0.2864
     27  CB        48.8820  -28.1600  -91.4450 C.3    39  ALA39       0.0319
     28  N         48.0770  -24.1480  -87.3690 N.3    42  GLU42      -0.1245
     29  CA        46.8250  -23.5410  -87.8190 C.3    42  GLU42       0.1567
     30  C         45.6450  -24.2640  -87.1830 C.2    42  GLU42       0.2260
     31  O         44.7000  -23.6260  -86.7240 O.2    42  GLU42      -0.2867
     32  CB        46.6860  -23.6010  -89.3430 C.3    42  GLU42       0.0388
     33  CG        47.5970  -22.6470  -90.0840 C.3    42  GLU42       0.1160
     34  CD        47.2540  -22.5370  -91.5550 C.2    42  GLU42       0.3649
     35  OE1       46.1580  -22.0410  -91.8820 O.co2  42  GLU42      -0.2457
     36  OE2       48.0820  -22.9490  -92.3840 O.co2  42  GLU42      -0.2457
     37  N         40.7660  -29.9980  -93.1800 N.3    73  MET73      -0.1245
     38  CA        41.5180  -29.7070  -94.3940 C.3    73  MET73       0.1570
     39  C         40.8190  -28.6970  -95.3170 C.2    73  MET73       0.2261
     40  O         41.4840  -27.8560  -95.9350 O.2    73  MET73      -0.2867
     41  CB        41.8240  -31.0120  -95.1420 C.3    73  MET73       0.0387
     42  CG        42.7730  -30.8590  -96.3250 C.3    73  MET73       0.0595
     43  SD        44.4090  -30.1290  -95.9390 S.3    73  MET73      -0.1393
     44  CE        45.3060  -31.5640  -95.3640 C.3    73  MET73       0.0692
     45  N         41.6180  -25.4110  -93.9480 N.3    76  LEU76      -0.1231
     46  CA        43.0090  -25.0740  -94.2060 C.3    76  LEU76       0.1693
     47  C         43.1570  -24.6410  -95.6570 C.2    76  LEU76       0.2591
     48  O         43.8250  -23.6480  -95.9540 O.2    76  LEU76      -0.2718
     49  CB        43.9150  -26.2840  -93.9420 C.3    76  LEU76       0.0284
     50  CG        44.1870  -26.7050  -92.4950 C.3    76  LEU76       0.0019
     51  CD1       45.1570  -27.8800  -92.4770 C.3    76  LEU76       0.0001
     52  CD2       44.7800  -25.5290  -91.7280 C.3    76  LEU76       0.0001
     53  N         42.5200  -25.3840  -96.5620 N.am   77  ILE77      -0.1980
     54  CA        42.6090  -25.0730  -97.9810 C.3    77  ILE77       0.1595
     55  C         41.9620  -23.7340  -98.3480 C.2    77  ILE77       0.2287
     56  O         42.5140  -22.9720  -99.1470 O.2    77  ILE77      -0.2864
     57  CB        42.0130  -26.2280  -98.8300 C.3    77  ILE77       0.0276
     58  CG1       42.9200  -27.4580  -98.7110 C.3    77  ILE77       0.0022
     59  CG2       41.8890  -25.8160 -100.2920 C.3    77  ILE77       0.0022
     60  CD1       42.4460  -28.6660  -99.4920 C.3    77  ILE77       0.0001
     61  N         44.4650  -20.9210  -97.6900 N.3    80  VAL80      -0.1245
     62  CA        45.4960  -20.7980  -98.7100 C.3    80  VAL80       0.1561
     63  C         44.9090  -20.1540  -99.9600 C.2    80  VAL80       0.2260
     64  O         45.5050  -19.2450 -100.5370 O.2    80  VAL80      -0.2867
     65  CB        46.0710  -22.1750  -99.0850 C.3    80  VAL80       0.0252
     66  CG1       47.1070  -22.0300 -100.2030 C.3    80  VAL80       0.0019
     67  CG2       46.6930  -22.8110  -97.8660 C.3    80  VAL80       0.0019
     68  N         44.2950  -16.3570  -99.4970 N.3    83  ARG83      -0.1245
     69  CA        45.5540  -15.6180  -99.4240 C.3    83  ARG83       0.1563
     70  C         46.2460  -15.5600 -100.7800 C.2    83  ARG83       0.2260
     71  O         47.1930  -14.8020 -100.9680 O.2    83  ARG83      -0.2867
     72  CB        46.5010  -16.2710  -98.4170 C.3    83  ARG83       0.0307
     73  CG        46.0020  -16.2860  -96.9810 C.3    83  ARG83       0.0489
     74  CD        47.1130  -16.7320  -96.0310 C.3    83  ARG83       0.2205
     75  NE        47.4560  -18.1510  -96.1560 N.pl3  83  ARG83      -0.0865
     76  CZ        46.8190  -19.1360  -95.5250 C.cat  83  ARG83       0.5346
     77  NH1       45.7920  -18.8680  -94.7210 N.pl3  83  ARG83       0.1354
     78  NH2       47.2250  -20.3910  -95.6700 N.pl3  83  ARG83       0.1354
     79  N         50.8360  -20.1590  -98.8340 N.3    93  TYR93      -0.1241
     80  CA        50.5600  -20.9680  -97.6580 C.3    93  TYR93       0.1605
     81  C         50.7810  -20.0920  -96.4350 C.2    93  TYR93       0.2264
     82  O         50.1800  -20.3040  -95.3840 O.2    93  TYR93      -0.2867
     83  CB        51.4810  -22.1820  -97.6210 C.3    93  TYR93       0.0534
     84  CG        50.9690  -23.3360  -98.4410 C.ar   93  TYR93      -0.0201
     85  CD1       50.1320  -24.3030  -97.8760 C.ar   93  TYR93      -0.0009
     86  CD2       51.2990  -23.4560  -99.7880 C.ar   93  TYR93      -0.0009
     87  CE1       49.6400  -25.3640  -98.6360 C.ar   93  TYR93       0.0417
     88  CE2       50.8100  -24.5100 -100.5570 C.ar   93  TYR93       0.0417
     89  CZ        49.9850  -25.4610  -99.9770 C.ar   93  TYR93       0.1957
     90  OH        49.5260  -26.5140 -100.7370 O.3    93  TYR93      -0.2866
     91  N         48.2920  -31.6410 -106.3680 N.3   112  LEU112     -0.1245
     92  CA        47.4780  -31.1250 -105.2680 C.3   112  LEU112      0.1561
     93  C         47.3810  -29.6040 -105.3830 C.2   112  LEU112      0.2260
     94  O         46.2920  -29.0340 -105.3090 O.2   112  LEU112     -0.2867
     95  CB        48.0950  -31.5020 -103.9160 C.3   112  LEU112      0.0270
     96  CG        47.2870  -31.3760 -102.6100 C.3   112  LEU112      0.0019
     97  CD1       47.9890  -30.4200 -101.6660 C.3   112  LEU112      0.0001
     98  CD2       45.8580  -30.9160 -102.8870 C.3   112  LEU112      0.0001
     99  N         44.3240  -26.8490 -106.0210 N.3   116  ILE116     -0.1245
    100  CA        44.0350  -25.6950 -105.1820 C.3   116  ILE116      0.1561
    101  C         44.0030  -24.4510 -106.0680 C.2   116  ILE116      0.2260
    102  O         43.2100  -23.5280 -105.8370 O.2   116  ILE116     -0.2867
    103  CB        45.1070  -25.5240 -104.0800 C.3   116  ILE116      0.0252
    104  CG1       45.1240  -26.7620 -103.1800 C.3   116  ILE116      0.0019
    105  CG2       44.8310  -24.2690 -103.2650 C.3   116  ILE116      0.0019
    106  CD1       46.1800  -26.7190 -102.0820 C.3   116  ILE116      0.0001
    107  N         44.1790  -33.9840 -100.6370 N.3   198  ALA198     -0.1245
    108  CA        45.1980  -33.5630  -99.6840 C.3   198  ALA198      0.1562
    109  C         45.3180  -34.5090  -98.4900 C.2   198  ALA198      0.2260
    110  O         46.4230  -34.8730  -98.0890 O.2   198  ALA198     -0.2867
    111  CB        44.8980  -32.1530  -99.1980 C.3   198  ALA198      0.0290
    112  N         48.7170  -36.6780  -97.8500 N.3   202  PHE202     -0.1241
    113  CA        49.4300  -36.5350  -96.5920 C.3   202  PHE202      0.1605
    114  C         49.3170  -37.7590  -95.7010 C.2   202  PHE202      0.2264
    115  O         50.1170  -37.9360  -94.7820 O.2   202  PHE202     -0.2867
    116  CB        48.9750  -35.2740  -95.8530 C.3   202  PHE202      0.0534
    117  CG        49.6000  -34.0140  -96.3930 C.ar  202  PHE202     -0.0203
    118  CD1       50.9520  -33.7580  -96.1920 C.ar  202  PHE202     -0.0042
    119  CD2       48.8690  -33.1410  -97.1870 C.ar  202  PHE202     -0.0042
    120  CE1       51.5690  -32.6590  -96.7780 C.ar  202  PHE202     -0.0003
    121  CE2       49.4790  -32.0380  -97.7800 C.ar  202  PHE202     -0.0003
    122  CZ        50.8330  -31.7990  -97.5760 C.ar  202  PHE202     -0.0000
    123  N         48.0340  -32.4570  -85.7760 N.3   217  PHE217     -0.1241
    124  CA        47.9700  -32.7360  -87.2050 C.3   217  PHE217      0.1605
    125  C         47.7540  -34.2320  -87.4250 C.2   217  PHE217      0.2264
    126  O         46.9330  -34.6410  -88.2520 O.2   217  PHE217     -0.2867
    127  CB        49.2700  -32.3040  -87.8820 C.3   217  PHE217      0.0534
    128  CG        49.3020  -32.5600  -89.3640 C.ar  217  PHE217     -0.0203
    129  CD1       48.5710  -31.7590  -90.2430 C.ar  217  PHE217     -0.0042
    130  CD2       50.0690  -33.6010  -89.8870 C.ar  217  PHE217     -0.0042
    131  CE1       48.6040  -31.9900  -91.6230 C.ar  217  PHE217     -0.0003
    132  CE2       50.1060  -33.8400  -91.2680 C.ar  217  PHE217     -0.0003
    133  CZ        49.3730  -33.0340  -92.1350 C.ar  217  PHE217     -0.0000
@<TRIPOS>BOND
     1    91    92    1
     2   101   102    2
     3   101   100    1
     4    99   100    1
     5    93    94    2
     6    93    92    1
     7    92    95    1
     8   100   103    1
     9   103   105    1
    10   103   104    1
    11    95    96    1
    12   104   106    1
    13    98    96    1
    14    96    97    1
    15    71    70    2
    16    70    69    1
    17    90    89    1
    18   107   108    1
    19    88    89   ar
    20    88    86   ar
    21    64    63    2
    22    59    57    1
    23    66    65    1
    24    89    87   ar
    25    63    62    1
    26    86    84   ar
    27   108   111    1
    28   108   109    1
    29    68    69    1
    30    60    58    1
    31    69    72    1
    32    56    55    2
    33    65    62    1
    34    65    67    1
    35    79    80    1
    36    57    58    1
    37    57    54    1
    38    62    61    1
    39    87    85   ar
    40   109   110    2
    41    84    85   ar
    42    84    83    1
    43    72    73    1
    44    55    54    1
    45     7     6    1
    46    54    53    1
    47   112   113    1
    48   121   122   ar
    49   121   119   ar
    50    80    83    1
    51    80    81    1
    52   122   120   ar
    53   119   117   ar
    54    73    74    1
    55     6     8    1
    56     6     5    1
    57   120   118   ar
    58   113   116    1
    59   113   114    1
    60    53    47   am
    61    81    82    2
    62   117   118   ar
    63   117   116    1
    64    42    43    1
    65    42    41    1
    66    75    74    1
    67    75    76    2
    68    48    47    2
    69    43    44    1
    70    40    39    2
    71     5     2    1
    72   114   115    2
    73    78    76    1
    74    47    46    1
    75    76    77    1
    76    39    38    1
    77    41    38    1
    78    38    37    1
    79     2     1    1
    80     2     3    1
    81    46    45    1
    82    46    49    1
    83    49    50    1
    84    22    20    1
    85     3     9   am
    86     3     4    2
    87    14    13    1
    88     9    10    1
    89    50    51    1
    90    50    52    1
    91    36    34   ar
    92    20    19    1
    93    20    21    1
    94   133   131   ar
    95   133   132   ar
    96    35    34   ar
    97    10    13    1
    98    10    11    1
    99    19    16    1
   100   131   129   ar
   101    34    33    1
   102    27    24    1
   103   132   130   ar
   104    23    24    1
   105    23    17   am
   106    24    25    1
   107    11    12    2
   108    16    15    1
   109    16    17    1
   110   129   128   ar
   111    33    32    1
   112    17    18    2
   113   130   128   ar
   114   128   127    1
   115    32    29    1
   116    25    26    2
   117   126   125    2
   118   127   124    1
   119    29    28    1
   120    29    30    1
   121   125   124    1
   122   124   123    1
   123    30    31    2
