@<TRIPOS>MOLECULE
tmp/2p7hA00.pdb
 118 117 0 0 0
SMALL
GASTEIGER

@<TRIPOS>ATOM
      1  N         34.7310   10.2200   50.6960 N.3     5  PHE5       -0.1241
      2  CA        35.0070    9.9930   52.1050 C.3     5  PHE5        0.1605
      3  C         36.1010   10.8930   52.6530 C.2     5  PHE5        0.2264
      4  O         36.0140   11.3590   53.7930 O.2     5  PHE5       -0.2867
      5  CB        35.3550    8.5160   52.3460 C.3     5  PHE5        0.0534
      6  CG        34.1650    7.5960   52.3050 C.ar    5  PHE5       -0.0203
      7  CD1       32.9980    7.9380   51.6200 C.ar    5  PHE5       -0.0042
      8  CD2       34.2160    6.3760   52.9480 C.ar    5  PHE5       -0.0042
      9  CE1       31.8970    7.0820   51.5920 C.ar    5  PHE5       -0.0003
     10  CE2       33.1230    5.5100   52.9200 C.ar    5  PHE5       -0.0003
     11  CZ        31.9600    5.8690   52.2430 C.ar    5  PHE5       -0.0000
     12  N         33.2940   14.4420   52.8170 N.3     8  HIS8       -0.1241
     13  CA        32.7560   14.2830   54.1970 C.3     8  HIS8        0.1621
     14  C         33.2480   15.3470   55.1740 C.2     8  HIS8        0.2264
     15  O         32.4470   16.0000   55.8230 O.2     8  HIS8       -0.2867
     16  CB        33.0220   12.8820   54.7430 C.3     8  HIS8        0.0745
     17  CG        32.0360   11.8690   54.2500 C.ar    8  HIS8        0.0817
     18  ND1       31.9830   10.5810   54.7330 N.ar    8  HIS8       -0.2268
     19  CD2       31.0690   11.9570   53.3050 C.ar    8  HIS8        0.1154
     20  CE1       31.0310    9.9160   54.1000 C.ar    8  HIS8        0.1986
     21  NE2       30.4520   10.7330   53.2350 N.ar    8  HIS8       -0.2212
     22  N         20.7480   11.2480   62.4600 N.3    25  GLU25      -0.1231
     23  CA        21.3910   10.9900   61.1650 C.3    25  GLU25       0.1699
     24  C         20.5240    9.9990   60.4050 C.2    25  GLU25       0.2592
     25  O         20.4650    8.8220   60.7500 O.2    25  GLU25      -0.2718
     26  CB        22.7740   10.3430   61.3250 C.3    25  GLU25       0.0402
     27  CG        23.5000   10.2350   59.9940 C.3    25  GLU25       0.1161
     28  CD        24.8770    9.6070   60.0440 C.2    25  GLU25       0.3649
     29  OE1       25.2680    9.0110   61.0710 O.co2  25  GLU25      -0.2457
     30  OE2       25.5500    9.6970   58.9970 O.co2  25  GLU25      -0.2457
     31  N         19.8720   10.4600   59.3570 N.am   26  LEU26      -0.1966
     32  CA        19.0180    9.5760   58.5900 C.3    26  LEU26       0.1728
     33  C         19.7700    8.9790   57.4120 C.2    26  LEU26       0.2617
     34  O         20.3090    9.7090   56.5670 O.2    26  LEU26      -0.2715
     35  CB        17.8140   10.3680   58.0920 C.3    26  LEU26       0.0311
     36  CG        16.8500   10.9050   59.1450 C.3    26  LEU26       0.0022
     37  CD1       15.8650   11.8550   58.4560 C.3    26  LEU26       0.0001
     38  CD2       16.1030    9.7490   59.8170 C.3    26  LEU26       0.0001
     39  N         19.7860    7.6430   57.3450 N.am   27  GLY27      -0.1940
     40  CA        20.5130    6.9180   56.3070 C.3    27  GLY27       0.2014
     41  C         21.9950    6.8670   56.6360 C.2    27  GLY27       0.2640
     42  O         22.8460    7.2750   55.8290 O.2    27  GLY27      -0.2714
     43  N         22.3110    6.3360   57.8100 N.am   28  SER28      -0.1935
     44  CA        23.6610    6.4140   58.3540 C.3    28  SER28       0.2055
     45  C         24.5820    5.3250   57.8070 C.2    28  SER28       0.2643
     46  O         25.8260    5.3700   57.9810 O.2    28  SER28      -0.2714
     47  CB        23.5750    6.3320   59.8610 C.3    28  SER28       0.2130
     48  OG        22.7850    5.2170   60.2140 O.3    28  SER28      -0.2179
     49  N         23.9750    4.3440   57.1520 N.am   29  PHE29      -0.1959
     50  CA        24.7100    3.3050   56.4680 C.3    29  PHE29       0.1771
     51  C         25.7910    2.6970   57.3850 C.2    29  PHE29       0.2619
     52  O         25.4740    2.2560   58.4810 O.2    29  PHE29      -0.2715
     53  CB        25.2620    3.8690   55.1410 C.3    29  PHE29       0.0574
     54  CG        25.6570    2.8000   54.1430 C.ar   29  PHE29      -0.0200
     55  CD1       24.7770    1.7820   53.8100 C.ar   29  PHE29      -0.0042
     56  CD2       26.9020    2.8330   53.5240 C.ar   29  PHE29      -0.0042
     57  CE1       25.1530    0.8040   52.9000 C.ar   29  PHE29      -0.0003
     58  CE2       27.2690    1.8730   52.6160 C.ar   29  PHE29      -0.0003
     59  CZ        26.4030    0.8620   52.3030 C.ar   29  PHE29      -0.0000
     60  N         27.0540    2.6970   56.9640 N.am   30  LYS30      -0.1977
     61  CA        28.1050    2.0150   57.7240 C.3    30  LYS30       0.1596
     62  C         28.8300    2.9340   58.7210 C.2    30  LYS30       0.2287
     63  O         29.8450    2.5540   59.3080 O.2    30  LYS30      -0.2864
     64  CB        29.1010    1.3350   56.7610 C.3    30  LYS30       0.0298
     65  CG        28.4220    0.4350   55.7400 C.3    30  LYS30       0.0038
     66  CD        29.3780   -0.5830   55.1180 C.3    30  LYS30       0.0206
     67  CE        30.5300    0.0770   54.3660 C.3    30  LYS30       0.1093
     68  NZ        31.3380   -0.9420   53.6230 N.3    30  LYS30      -0.1314
     69  N         30.3700    5.9010   58.2740 N.3    32  ASP32      -0.1225
     70  CA        31.5020    6.7190   57.7890 C.3    32  ASP32       0.1805
     71  C         31.3450    8.1990   58.1260 C.2    32  ASP32       0.2597
     72  O         32.3010    8.8460   58.5610 O.2    32  ASP32      -0.2718
     73  CB        31.6900    6.5040   56.2900 C.3    32  ASP32       0.1424
     74  CG        32.0270    5.0290   55.9520 C.2    32  ASP32       0.3668
     75  OD1       32.9420    4.4780   56.5980 O.co2  32  ASP32      -0.2456
     76  OD2       31.3740    4.4310   55.0630 O.co2  32  ASP32      -0.2456
     77  N         30.1270    8.7270   57.9900 N.am   33  PHE33      -0.1976
     78  CA        29.8660   10.1270   58.3170 C.3    33  PHE33       0.1639
     79  C         29.6250   10.2850   59.8200 C.2    33  PHE33       0.2290
     80  O         30.0290   11.2940   60.4210 O.2    33  PHE33      -0.2864
     81  CB        28.6570   10.6400   57.5110 C.3    33  PHE33       0.0560
     82  CG        28.5490   12.1550   57.4350 C.ar   33  PHE33      -0.0200
     83  CD1       29.5450   12.9090   56.8440 C.ar   33  PHE33      -0.0042
     84  CD2       27.4240   12.8090   57.9210 C.ar   33  PHE33      -0.0042
     85  CE1       29.4440   14.2820   56.7850 C.ar   33  PHE33      -0.0003
     86  CE2       27.3240   14.1830   57.8540 C.ar   33  PHE33      -0.0003
     87  CZ        28.3230   14.9180   57.2790 C.ar   33  PHE33      -0.0000
     88  N         20.3280   15.3240   60.0180 N.3    85  VAL85      -0.1245
     89  CA        21.2150   15.1960   58.8690 C.3    85  VAL85       0.1561
     90  C         20.6600   14.2160   57.8320 C.2    85  VAL85       0.2260
     91  O         20.3160   13.0800   58.1650 O.2    85  VAL85      -0.2867
     92  CB        22.6090   14.7740   59.3320 C.3    85  VAL85       0.0252
     93  CG1       23.4940   14.4310   58.1120 C.3    85  VAL85       0.0019
     94  CG2       23.2100   15.8950   60.1720 C.3    85  VAL85       0.0019
     95  N         22.0520   13.5130   54.2950 N.3    87  THR87      -0.1203
     96  CA        23.1380   13.7790   53.3350 C.3    87  THR87       0.1994
     97  C         23.2950   12.6360   52.3490 C.2    87  THR87       0.2618
     98  O         23.5100   11.4830   52.7440 O.2    87  THR87      -0.2717
     99  CB        24.4790   14.0520   54.0360 C.3    87  THR87       0.1784
    100  OG1       24.8610   12.9190   54.8180 O.3    87  THR87      -0.2211
    101  CG2       24.3790   15.3060   54.9190 C.3    87  THR87       0.0376
    102  N         23.1110   12.9700   51.0660 N.am   88  HIS88      -0.1961
    103  CA        23.1330   12.0370   49.9480 C.3    88  HIS88       0.1787
    104  C         22.1980   10.8630   50.1540 C.2    88  HIS88       0.2620
    105  O         22.5380    9.7250   49.9040 O.2    88  HIS88      -0.2715
    106  CB        24.5590   11.6180   49.6400 C.3    88  HIS88       0.0785
    107  CG        25.3630   12.7070   49.0150 C.ar   88  HIS88       0.0821
    108  ND1       26.3810   12.4670   48.1220 N.ar   88  HIS88      -0.2267
    109  CD2       25.2810   14.0580   49.1370 C.ar   88  HIS88       0.1154
    110  CE1       26.9030   13.6160   47.7330 C.ar   88  HIS88       0.1986
    111  NE2       26.2580   14.5940   48.3370 N.ar   88  HIS88      -0.2212
    112  N         20.9720   11.1940   50.5670 N.am   89  VAL89      -0.1977
    113  CA        19.9400   10.2010   50.7990 C.3    89  VAL89       0.1596
    114  C         18.6570   10.5040   49.9830 C.2    89  VAL89       0.2287
    115  O         18.0710    9.5950   49.3960 O.2    89  VAL89      -0.2864
    116  CB        19.5780   10.1100   52.2690 C.3    89  VAL89       0.0276
    117  CG1       18.3610    9.1880   52.4210 C.3    89  VAL89       0.0022
    118  CG2       20.7760    9.5670   53.0740 C.3    89  VAL89       0.0022
@<TRIPOS>BOND
     1   110   108   ar
     2   110   111   ar
     3   108   107   ar
     4   111   109   ar
     5   107   109   ar
     6   107   106    1
     7   115   114    2
     8   106   103    1
     9   105   104    2
    10   103   104    1
    11   103   102    1
    12   114   113    1
    13   104   112   am
    14   112   113    1
    15     1     2    1
    16   113   116    1
    17   102    97   am
    18     9     7   ar
    19     9    11   ar
    20     7     6   ar
    21     2     5    1
    22     2     3    1
    23    11    10   ar
    24   116   117    1
    25   116   118    1
    26    59    58   ar
    27    59    57   ar
    28     6     5    1
    29     6     8   ar
    30    97    98    2
    31    97    96    1
    32    58    56   ar
    33     3     4    2
    34    12    13    1
    35    57    55   ar
    36    10     8   ar
    37    21    19   ar
    38    21    20   ar
    39    19    17   ar
    40    96    99    1
    41    96    95    1
    42    56    54   ar
    43    68    67    1
    44    55    54   ar
    45    99   100    1
    46    99   101    1
    47    20    18   ar
    48    54    53    1
    49    13    16    1
    50    13    14    1
    51    17    18   ar
    52    17    16    1
    53    67    66    1
    54    76    74   ar
    55    66    65    1
    56    53    50    1
    57    14    15    2
    58    65    64    1
    59    42    41    2
    60    74    73    1
    61    74    75   ar
    62    73    70    1
    63    40    41    1
    64    40    39    1
    65    50    49    1
    66    50    51    1
    67    34    33    2
    68    41    43   am
    69    64    61    1
    70    85    83   ar
    71    85    87   ar
    72    83    82   ar
    73    60    51   am
    74    60    61    1
    75    49    45   am
    76    87    86   ar
    77    39    33   am
    78    51    52    2
    79    33    32    1
    80    82    81    1
    81    82    84   ar
    82    81    78    1
    83    61    62    1
    84    70    71    1
    85    70    69    1
    86    45    46    2
    87    45    44    1
    88    43    44    1
    89    90    91    2
    90    90    89    1
    91    86    84   ar
    92    77    71   am
    93    77    78    1
    94    35    32    1
    95    35    36    1
    96    93    92    1
    97    71    72    2
    98    78    79    1
    99    44    47    1
   100    37    36    1
   101    32    31    1
   102    62    63    2
   103    89    92    1
   104    89    88    1
   105    30    28   ar
   106    36    38    1
   107    92    94    1
   108    31    24   am
   109    79    80    2
   110    47    48    1
   111    27    28    1
   112    27    26    1
   113    28    29   ar
   114    24    25    2
   115    24    23    1
   116    23    26    1
   117    23    22    1
