@<TRIPOS>MOLECULE
tmp/2p7qF00.pdb
 112 108 0 0 0
SMALL
GASTEIGER

@<TRIPOS>ATOM
      1  N         10.6370   18.3370   16.4910 N.3    67  TYR67      -0.1241
      2  CA        11.7610   19.2300   16.7110 C.3    67  TYR67       0.1605
      3  C         13.0910   18.7170   16.1780 C.2    67  TYR67       0.2264
      4  O         14.1470   19.2850   16.4490 O.2    67  TYR67      -0.2867
      5  CB        11.8590   19.5810   18.1940 C.3    67  TYR67       0.0534
      6  CG        12.9270   20.5950   18.5310 C.ar   67  TYR67      -0.0201
      7  CD1       12.9900   21.8290   17.8830 C.ar   67  TYR67      -0.0009
      8  CD2       13.8970   20.3050   19.4860 C.ar   67  TYR67      -0.0009
      9  CE1       14.0050   22.7420   18.1790 C.ar   67  TYR67       0.0417
     10  CE2       14.9040   21.2020   19.7890 C.ar   67  TYR67       0.0417
     11  CZ        14.9620   22.4100   19.1380 C.ar   67  TYR67       0.1957
     12  OH        15.9980   23.2580   19.4440 O.3    67  TYR67      -0.2866
     13  N         15.7870   18.6580   13.7000 N.3    69  HIS69      -0.1241
     14  CA        16.1450   19.6610   12.7040 C.3    69  HIS69       0.1621
     15  C         17.5800   19.6500   12.2160 C.2    69  HIS69       0.2264
     16  O         18.4400   18.9590   12.7470 O.2    69  HIS69      -0.2867
     17  CB        15.8190   21.0650   13.2170 C.3    69  HIS69       0.0745
     18  CG        16.5200   21.4290   14.4880 C.ar   69  HIS69       0.0817
     19  ND1       16.0730   21.0220   15.7260 N.ar   69  HIS69      -0.2268
     20  CD2       17.6150   22.1930   14.7140 C.ar   69  HIS69       0.1154
     21  CE1       16.8610   21.5250   16.6600 C.ar   69  HIS69       0.1986
     22  NE2       17.8040   22.2400   16.0730 N.ar   69  HIS69      -0.2212
     23  N         13.2470   30.7460   20.4930 N.3    97  ARG97      -0.1231
     24  CA        13.2220   29.5850   21.3670 C.3    97  ARG97       0.1679
     25  C         14.0500   29.9150   22.6120 C.2    97  ARG97       0.2434
     26  O         15.0980   30.5550   22.5090 O.2    97  ARG97      -0.2733
     27  CB        13.8130   28.3790   20.6320 C.3    97  ARG97       0.0321
     28  CG        13.6760   27.0690   21.3650 C.3    97  ARG97       0.0489
     29  CD        14.4470   25.9720   20.6590 C.3    97  ARG97       0.2205
     30  NE        14.7800   24.8960   21.5860 N.pl3  97  ARG97      -0.0865
     31  CZ        13.8870   24.0830   22.1350 C.cat  97  ARG97       0.5346
     32  NH1       12.5980   24.2160   21.8410 N.pl3  97  ARG97       0.1354
     33  NH2       14.2830   23.1550   22.9980 N.pl3  97  ARG97       0.1354
     34  N         13.5780   29.4960   23.8030 N.am   98  PRO98      -0.2718
     35  CA        14.2540   29.7330   25.0840 C.3    98  PRO98       0.1535
     36  C         15.7660   29.5420   25.0090 C.2    98  PRO98       0.2598
     37  O         16.2480   28.5640   24.4340 O.2    98  PRO98      -0.2715
     38  CB        13.5810   28.7260   26.0070 C.3    98  PRO98       0.0310
     39  CG        12.1760   28.7580   25.5190 C.3    98  PRO98       0.0237
     40  CD        12.3490   28.7070   24.0120 C.3    98  PRO98       0.0939
     41  N         16.5060   30.4810   25.5970 N.am   99  ARG99      -0.1978
     42  CA        17.9640   30.4400   25.5780 C.3    99  ARG99       0.1597
     43  C         18.6180   30.6280   26.9460 C.2    99  ARG99       0.2287
     44  O         17.9730   31.0330   27.9160 O.2    99  ARG99      -0.2864
     45  CB        18.4900   31.5000   24.6050 C.3    99  ARG99       0.0334
     46  CG        18.9740   30.9240   23.2880 C.3    99  ARG99       0.0492
     47  CD        18.9580   31.9400   22.1500 C.3    99  ARG99       0.2205
     48  NE        19.6320   33.1970   22.4720 N.pl3  99  ARG99      -0.0865
     49  CZ        19.0010   34.3190   22.8100 C.cat  99  ARG99       0.5346
     50  NH1       17.6730   34.3470   22.8730 N.pl3  99  ARG99       0.1354
     51  NH2       19.7010   35.4180   23.0740 N.pl3  99  ARG99       0.1354
     52  N         24.7480   30.1830   23.6730 N.3   103  GLU103     -0.1231
     53  CA        24.0270   29.9350   22.4210 C.3   103  GLU103      0.1699
     54  C         23.5310   31.1830   21.7080 C.2   103  GLU103      0.2592
     55  O         22.5820   31.8300   22.1480 O.2   103  GLU103     -0.2718
     56  CB        22.8570   28.9680   22.6550 C.3   103  GLU103      0.0402
     57  CG        22.0880   29.1630   23.9520 C.3   103  GLU103      0.1161
     58  CD        21.0060   28.1110   24.1350 C.2   103  GLU103      0.3649
     59  OE1       20.4230   28.0360   25.2380 O.co2 103  GLU103     -0.2457
     60  OE2       20.7360   27.3600   23.1690 O.co2 103  GLU103     -0.2457
     61  N         24.1890   31.5110   20.5990 N.am  104  GLY104     -0.1957
     62  CA        23.8270   32.6870   19.8280 C.3   104  GLY104      0.1869
     63  C         22.3830   32.6840   19.3800 C.2   104  GLY104      0.2309
     64  O         21.5720   31.9030   19.8790 O.2   104  GLY104     -0.2863
     65  N         19.2320   32.2020   16.6470 N.3   106  SER106     -0.1217
     66  CA        18.8640   31.2650   15.5920 C.3   106  SER106      0.1889
     67  C         17.5770   31.6840   14.8890 C.2   106  SER106      0.2288
     68  O         16.8750   32.5920   15.3370 O.2   106  SER106     -0.2866
     69  CB        18.6870   29.8590   16.1740 C.3   106  SER106      0.2089
     70  OG        19.9250   29.3360   16.6120 O.3   106  SER106     -0.2183
     71  N         14.3910   29.5420   13.1740 N.3   108  TYR108     -0.1241
     72  CA        13.7530   28.2750   12.8560 C.3   108  TYR108      0.1605
     73  C         12.6200   28.5250   11.8810 C.2   108  TYR108      0.2264
     74  O         11.8830   29.5040   12.0080 O.2   108  TYR108     -0.2867
     75  CB        13.1970   27.6020   14.1150 C.3   108  TYR108      0.0534
     76  CG        14.2420   27.0140   15.0470 C.ar  108  TYR108     -0.0201
     77  CD1       14.8980   27.8050   15.9900 C.ar  108  TYR108     -0.0009
     78  CD2       14.5570   25.6550   14.9960 C.ar  108  TYR108     -0.0009
     79  CE1       15.8390   27.2550   16.8640 C.ar  108  TYR108      0.0417
     80  CE2       15.4930   25.0970   15.8610 C.ar  108  TYR108      0.0417
     81  CZ        16.1300   25.9000   16.7930 C.ar  108  TYR108      0.1957
     82  OH        17.0590   25.3400   17.6430 O.3   108  TYR108     -0.2866
     83  N         17.0850   25.3490   10.4990 N.3   118  GLU118     -0.1245
     84  CA        17.5870   26.4070   11.3540 C.3   118  GLU118      0.1567
     85  C         18.8450   27.0300   10.8000 C.2   118  GLU118      0.2260
     86  O         19.6940   26.3490   10.2190 O.2   118  GLU118     -0.2867
     87  CB        17.8960   25.8840   12.7580 C.3   118  GLU118      0.0388
     88  CG        18.3960   26.9640   13.7080 C.3   118  GLU118      0.1160
     89  CD        19.1200   26.4090   14.9170 C.2   118  GLU118      0.3649
     90  OE1       18.5890   25.4910   15.5680 O.co2 118  GLU118     -0.2457
     91  OE2       20.2250   26.8980   15.2230 O.co2 118  GLU118     -0.2457
     92  N         21.8320   29.1800   12.2760 N.3   120  HIS120     -0.1241
     93  CA        22.4050   29.4720   13.5820 C.3   120  HIS120      0.1621
     94  C         23.5700   30.4550   13.5410 C.2   120  HIS120      0.2264
     95  O         24.6000   30.1930   12.9200 O.2   120  HIS120     -0.2867
     96  CB        22.8480   28.1560   14.2320 C.3   120  HIS120      0.0745
     97  CG        23.2930   28.2980   15.6530 C.ar  120  HIS120      0.0817
     98  ND1       22.4980   28.8620   16.6280 N.ar  120  HIS120     -0.2268
     99  CD2       24.4440   27.9370   16.2670 C.ar  120  HIS120      0.1154
    100  CE1       23.1400   28.8430   17.7830 C.ar  120  HIS120      0.1986
    101  NE2       24.3230   28.2870   17.5910 N.ar  120  HIS120     -0.2212
    102  N         29.3210   27.7990   22.8350 N.3   127  ARG127     -0.1245
    103  CA        28.3680   27.1150   23.7000 C.3   127  ARG127      0.1563
    104  C         29.0910   26.3150   24.7800 C.2   127  ARG127      0.2260
    105  O         28.5730   26.1260   25.8820 O.2   127  ARG127     -0.2867
    106  CB        27.4870   26.1900   22.8570 C.3   127  ARG127      0.0307
    107  CG        26.3080   25.5640   23.5900 C.3   127  ARG127      0.0489
    108  CD        25.2340   26.5910   23.9220 C.3   127  ARG127      0.2205
    109  NE        23.9750   25.9590   24.3180 N.pl3 127  ARG127     -0.0865
    110  CZ        23.8170   25.2100   25.4030 C.cat 127  ARG127      0.5346
    111  NH1       24.8390   24.9920   26.2190 N.pl3 127  ARG127      0.1354
    112  NH2       22.6340   24.6730   25.6700 N.pl3 127  ARG127      0.1354
@<TRIPOS>BOND
     1    86    85    2
     2    83    84    1
     3    85    84    1
     4    84    87    1
     5    73    74    2
     6    73    72    1
     7    15    14    1
     8    15    16    2
     9    92    93    1
    10    14    17    1
    11    14    13    1
    12    87    88    1
    13    72    71    1
    14    72    75    1
    15    95    94    2
    16    17    18    1
    17    94    93    1
    18    93    96    1
    19    88    89    1
    20    75    76    1
    21    96    97    1
    22    18    20   ar
    23    18    19   ar
    24    20    22   ar
    25    67    68    2
    26    67    66    1
    27    89    91   ar
    28    89    90   ar
    29    78    76   ar
    30    78    80   ar
    31    76    77   ar
    32    66    69    1
    33    66    65    1
    34    97    99   ar
    35    97    98   ar
    36    19    21   ar
    37    80    81   ar
    38    77    79   ar
    39    22    21   ar
    40    69    70    1
    41     3     4    2
    42     3     2    1
    43    99   101   ar
    44     1     2    1
    45    98   100   ar
    46     2     5    1
    47    81    79   ar
    48    81    82    1
    49   101   100   ar
    50     7     9   ar
    51     7     6   ar
    52     9    11   ar
    53     5     6    1
    54     6     8   ar
    55    11    12    1
    56    11    10   ar
    57    63    62    1
    58    63    64    2
    59     8    10   ar
    60    62    61    1
    61    23    24    1
    62    61    54   am
    63    27    28    1
    64    27    24    1
    65    29    28    1
    66    29    30    1
    67    24    25    1
    68    30    31    2
    69    54    55    2
    70    54    53    1
    71    32    31    1
    72    31    33    1
    73    47    48    1
    74    47    46    1
    75    53    56    1
    76    53    52    1
    77    48    49    2
    78    26    25    2
    79    25    34   am
    80    56    57    1
    81    49    50    1
    82    49    51    1
    83   102   103    1
    84   106   107    1
    85   106   103    1
    86    60    58   ar
    87    46    45    1
    88   107   108    1
    89   103   104    1
    90    34    40    1
    91    34    35    1
    92   108   109    1
    93    57    58    1
    94    40    39    1
    95    58    59   ar
    96   109   110    2
    97    37    36    2
    98    45    42    1
    99   104   105    2
   100    36    35    1
   101    36    41   am
   102    35    38    1
   103   110   112    1
   104   110   111    1
   105    39    38    1
   106    42    41    1
   107    42    43    1
   108    43    44    2
