@<TRIPOS>MOLECULE
tmp/2p7sA00.pdb
 85 83 0 0 0
SMALL
GASTEIGER

@<TRIPOS>ATOM
      1  N         30.9500   41.8210    2.0780 N.3    20  PHE20      -0.1227
      2  CA        31.6430   41.2710    0.9280 C.3    20  PHE20       0.1736
      3  C         30.6550   40.8960   -0.1630 C.2    20  PHE20       0.2595
      4  O         29.6010   40.3190    0.1060 O.2    20  PHE20      -0.2718
      5  CB        32.4610   40.0360    1.3180 C.3    20  PHE20       0.0547
      6  CG        33.4770   39.6460    0.2840 C.ar   20  PHE20      -0.0202
      7  CD1       34.7080   40.2930    0.2220 C.ar   20  PHE20      -0.0042
      8  CD2       33.1810   38.6730   -0.6660 C.ar   20  PHE20      -0.0042
      9  CE1       35.6370   39.9790   -0.7780 C.ar   20  PHE20      -0.0003
     10  CE2       34.0930   38.3530   -1.6670 C.ar   20  PHE20      -0.0003
     11  CZ        35.3240   39.0060   -1.7250 C.ar   20  PHE20      -0.0000
     12  N         31.0100   41.2220   -1.4000 N.am   21  ASN21      -0.1960
     13  CA        30.1560   40.9150   -2.5370 C.3    21  ASN21       0.1819
     14  C         30.9900   40.3150   -3.6490 C.2    21  ASN21       0.2621
     15  O         31.8050   41.0000   -4.2710 O.2    21  ASN21      -0.2715
     16  CB        29.4630   42.1820   -3.0500 C.3    21  ASN21       0.1195
     17  CG        28.4190   41.8830   -4.1100 C.2    21  ASN21       0.2630
     18  OD1       28.6090   41.0070   -4.9490 O.2    21  ASN21      -0.2716
     19  ND2       27.3180   42.6220   -4.0870 N.am   21  ASN21      -0.0877
     20  N         30.7890   39.0270   -3.8970 N.am   22  CYS22      -0.1954
     21  CA        31.5260   38.3430   -4.9480 C.3    22  CYS22       0.1843
     22  C         31.4070   39.0340   -6.3060 C.2    22  CYS22       0.2625
     23  O         32.3900   39.1550   -7.0380 O.2    22  CYS22      -0.2714
     24  CB        31.0300   36.9050   -5.0850 C.3    22  CYS22       0.0997
     25  SG        31.5480   35.7830   -3.7440 S.3    22  CYS22      -0.0797
     26  N         30.2030   39.4730   -6.6530 N.am   23  ASN23      -0.1972
     27  CA        29.9990   40.1190   -7.9470 C.3    23  ASN23       0.1688
     28  C         30.8410   41.3650   -8.1160 C.2    23  ASN23       0.2292
     29  O         31.2130   41.7240   -9.2330 O.2    23  ASN23      -0.2864
     30  CB        28.5210   40.4460   -8.1460 C.3    23  ASN23       0.1181
     31  CG        27.6580   39.2240   -8.0430 C.2    23  ASN23       0.2629
     32  OD1       28.0570   38.1500   -8.4990 O.2    23  ASN23      -0.2716
     33  ND2       26.4780   39.3680   -7.4480 N.am   23  ASN23      -0.0877
     34  N         30.7610   29.2460   -9.3210 N.3    77  ASN77      -0.1240
     35  CA        29.6770   29.0190  -10.2710 C.3    77  ASN77       0.1653
     36  C         29.1630   30.2770  -10.9600 C.2    77  ASN77       0.2266
     37  O         27.9580   30.5540  -10.9600 O.2    77  ASN77      -0.2867
     38  CB        28.5200   28.3070   -9.5670 C.3    77  ASN77       0.1155
     39  CG        28.9620   27.0230   -8.8940 C.2    77  ASN77       0.2627
     40  OD1       30.0700   26.5410   -9.1370 O.2    77  ASN77      -0.2716
     41  ND2       28.1050   26.4610   -8.0500 N.am   77  ASN77      -0.0877
     42  N         27.8330   32.9390  -13.7130 N.3    79  ILE79      -0.1245
     43  CA        26.9310   32.9200  -14.8560 C.3    79  ILE79       0.1561
     44  C         27.0580   34.3650  -15.3190 C.2    79  ILE79       0.2260
     45  O         26.5590   35.2720  -14.6530 O.2    79  ILE79      -0.2867
     46  CB        25.4620   32.6700  -14.4510 C.3    79  ILE79       0.0252
     47  CG1       25.3250   31.3420  -13.7000 C.3    79  ILE79       0.0019
     48  CG2       24.5830   32.6700  -15.7030 C.3    79  ILE79       0.0019
     49  CD1       25.6050   30.1200  -14.5380 C.3    79  ILE79       0.0001
     50  N         28.4720   36.5760  -12.5800 N.3    82  LYS82      -0.1231
     51  CA        27.6830   36.7810  -11.3660 C.3    82  LYS82       0.1693
     52  C         27.8280   35.4460  -10.6310 C.2    82  LYS82       0.2592
     53  O         27.6260   34.3790  -11.2170 O.2    82  LYS82      -0.2718
     54  CB        26.2240   37.0790  -11.7100 C.3    82  LYS82       0.0285
     55  CG        26.0150   38.4360  -12.3810 C.3    82  LYS82       0.0035
     56  CD        26.2750   39.5760  -11.4030 C.3    82  LYS82       0.0206
     57  CE        25.8920   40.9260  -11.9940 C.3    82  LYS82       0.1093
     58  NZ        26.7780   41.3360  -13.1240 N.3    82  LYS82      -0.1314
     59  N         28.1620   35.5090   -9.3470 N.am   83  TYR83      -0.1962
     60  CA        28.4450   34.3050   -8.5680 C.3    83  TYR83       0.1771
     61  C         27.5290   33.8380   -7.4500 C.2    83  TYR83       0.2620
     62  O         26.6990   34.5860   -6.9390 O.2    83  TYR83      -0.2715
     63  CB        29.8240   34.4440   -7.9230 C.3    83  TYR83       0.0574
     64  CG        30.9690   34.7470   -8.8530 C.ar   83  TYR83      -0.0198
     65  CD1       31.0680   35.9770   -9.5050 C.ar   83  TYR83      -0.0009
     66  CD2       31.9760   33.8050   -9.0590 C.ar   83  TYR83      -0.0009
     67  CE1       32.1520   36.2570  -10.3440 C.ar   83  TYR83       0.0417
     68  CE2       33.0520   34.0720   -9.8860 C.ar   83  TYR83       0.0417
     69  CZ        33.1390   35.2940  -10.5250 C.ar   83  TYR83       0.1957
     70  OH        34.2190   35.5390  -11.3360 O.3    83  TYR83      -0.2866
     71  N         27.7390   32.5760   -7.0650 N.am   84  SER84      -0.1936
     72  CA        27.0650   31.9700   -5.9310 C.3    84  SER84       0.2055
     73  C         28.0900   32.2610   -4.8320 C.2    84  SER84       0.2642
     74  O         29.3000   32.2220   -5.0830 O.2    84  SER84      -0.2714
     75  CB        26.9070   30.4560   -6.1050 C.3    84  SER84       0.2130
     76  OG        25.8470   30.1650   -6.9990 O.3    84  SER84      -0.2179
     77  N         27.6120   32.5530   -3.6310 N.am   85  GLN85      -0.1976
     78  CA        28.4870   32.9060   -2.5200 C.3    85  GLN85       0.1601
     79  C         28.2070   32.0420   -1.3010 C.2    85  GLN85       0.2287
     80  O         27.0490   31.8350   -0.9270 O.2    85  GLN85      -0.2864
     81  CB        28.2640   34.3840   -2.1730 C.3    85  GLN85       0.0394
     82  CG        29.0720   34.9380   -1.0140 C.3    85  GLN85       0.0908
     83  CD        28.9620   36.4600   -0.9120 C.2    85  GLN85       0.2608
     84  OE1       28.7420   37.1430   -1.9130 O.2    85  GLN85      -0.2717
     85  NE2       29.1420   36.9930    0.2920 N.am   85  GLN85      -0.0878
@<TRIPOS>BOND
     1    48    46    1
     2    44    43    1
     3    44    45    2
     4    43    46    1
     5    43    42    1
     6    49    47    1
     7    46    47    1
     8    58    57    1
     9    50    51    1
    10    55    54    1
    11    55    56    1
    12    57    56    1
    13    54    51    1
    14    51    52    1
    15    70    69    1
    16    53    52    2
    17    37    36    2
    18    36    35    1
    19    52    59   am
    20    69    67   ar
    21    69    68   ar
    22    67    65   ar
    23    35    38    1
    24    35    34    1
    25    68    66   ar
    26    38    39    1
    27    65    64   ar
    28    59    60    1
    29    29    28    2
    30    40    39    2
    31    66    64   ar
    32    39    41   am
    33    64    63    1
    34    60    63    1
    35    60    61    1
    36    32    31    2
    37    30    31    1
    38    30    27    1
    39    28    27    1
    40    31    33   am
    41    27    26    1
    42    61    71   am
    43    61    62    2
    44    71    72    1
    45    23    22    2
    46    76    75    1
    47    26    22   am
    48    22    21    1
    49    75    72    1
    50    72    73    1
    51    24    21    1
    52    24    25    1
    53    74    73    2
    54    18    17    2
    55    21    20    1
    56    73    77   am
    57    15    14    2
    58    17    19   am
    59    17    16    1
    60    20    14   am
    61    14    13    1
    62    77    78    1
    63    16    13    1
    64    13    12    1
    65    78    81    1
    66    78    79    1
    67    81    82    1
    68    84    83    2
    69    11    10   ar
    70    11     9   ar
    71    10     8   ar
    72    12     3   am
    73    79    80    2
    74    82    83    1
    75    83    85   am
    76     9     7   ar
    77     8     6   ar
    78     3     4    2
    79     3     2    1
    80     7     6   ar
    81     6     5    1
    82     2     5    1
    83     2     1    1
