@<TRIPOS>MOLECULE
tmp/2p7uA00.pdb
 176 171 0 0 0
SMALL
GASTEIGER

@<TRIPOS>ATOM
      1  N          4.2500   -1.6500   11.0470 N.3    19  GLN19      -0.1245
      2  CA         3.6060   -0.5090   11.7000 C.3    19  GLN19       0.1566
      3  C          3.6480   -0.5510   13.2320 C.2    19  GLN19       0.2260
      4  O          3.4290    0.4830   13.9050 O.2    19  GLN19      -0.2867
      5  CB         2.1760   -0.3210   11.1930 C.3    19  GLN19       0.0367
      6  CG         1.2530   -1.3390   11.6170 C.3    19  GLN19       0.0905
      7  CD        -0.1010   -1.2960   10.8150 C.2    19  GLN19       0.2608
      8  OE1       -0.1670   -1.4690    9.5920 O.2    19  GLN19      -0.2717
      9  NE2       -1.1580   -1.1180   11.5430 N.am   19  GLN19      -0.0878
     10  N          2.4300   -0.9400   16.9870 N.3    21  GLN21      -0.1231
     11  CA         1.2020   -0.7290   17.7740 C.3    21  GLN21       0.1698
     12  C          0.6160    0.6570   17.4580 C.2    21  GLN21       0.2592
     13  O          0.4000    1.5030   18.3290 O.2    21  GLN21      -0.2718
     14  CB         1.4700   -0.8330   19.3070 C.3    21  GLN21       0.0381
     15  CG         2.1210   -2.1170   19.7750 C.3    21  GLN21       0.0905
     16  CD         2.8540   -1.9480   21.1450 C.2    21  GLN21       0.2608
     17  OE1        2.5380   -1.0190   21.9140 O.2    21  GLN21      -0.2717
     18  NE2        3.7850   -2.8630   21.4570 N.am   21  GLN21      -0.0878
     19  N          0.4140    0.9080   16.1830 N.am   22  CYS22      -0.1956
     20  CA        -0.0680    2.1900   15.7050 C.3    22  CYS22       0.1843
     21  C         -0.9490    1.8750   14.4960 C.2    22  CYS22       0.2626
     22  O         -0.5220    1.1190   13.6090 O.2    22  CYS22      -0.2714
     23  CB         1.1080    3.0740   15.3040 C.3    22  CYS22       0.0997
     24  SG         0.7550    4.5930   14.4340 S.3    22  CYS22      -0.0797
     25  N         -2.1490    2.4420   14.4350 N.am   23  GLY23      -0.1954
     26  CA        -3.0430    2.2010   13.3120 C.3    23  GLY23       0.1869
     27  C         -2.7590    3.0330   12.0620 C.2    23  GLY23       0.2309
     28  O         -3.6170    3.7380   11.5250 O.2    23  GLY23      -0.2863
     29  N         -1.7470    1.9080    9.0730 N.3    25  CYS25      -0.1221
     30  CA        -1.7980    1.1140    7.8440 C.3    25  CYS25       0.1808
     31  C         -1.9720    2.0120    6.5950 C.2    25  CYS25       0.2601
     32  O         -1.3320    1.7650    5.5540 O.2    25  CYS25      -0.2717
     33  CB        -2.9490    0.1080    7.9400 C.3    25  CYS25       0.0970
     34  SG        -4.5620    0.8780    8.2590 S.3    25  CYS25      -0.0800
     35  N         -2.8550    3.0120    6.7120 N.am   26  TRP26      -0.1976
     36  CA        -3.1520    3.9340    5.6030 C.3    26  TRP26       0.1640
     37  C         -1.8620    4.6510    5.1370 C.2    26  TRP26       0.2290
     38  O         -1.7150    4.9300    3.9580 O.2    26  TRP26      -0.2864
     39  CB        -4.1840    4.9930    6.0530 C.3    26  TRP26       0.0576
     40  CG        -3.7700    5.7440    7.2730 C.ar   26  TRP26       0.0006
     41  CD1       -3.9510    5.3740    8.5720 C.ar   26  TRP26       0.0946
     42  CD2       -3.0690    7.0250    7.3020 C.ar   26  TRP26       0.0152
     43  NE1       -3.3500    6.3360    9.4030 N.ar   26  TRP26      -0.2442
     44  CE2       -2.8250    7.3440    8.6420 C.ar   26  TRP26       0.0810
     45  CE3       -2.6600    7.9230    6.3130 C.ar   26  TRP26       0.0012
     46  CZ2       -2.1620    8.5480    9.0200 C.ar   26  TRP26       0.0191
     47  CZ3       -1.9780    9.0870    6.6830 C.ar   26  TRP26       0.0001
     48  CH2       -1.7760    9.4040    8.0130 C.ar   26  TRP26       0.0015
     49  N         -5.7350   13.3870    8.3250 N.3    60  ASP60      -0.1225
     50  CA        -5.8040   12.0680    8.9390 C.3    60  ASP60       0.1805
     51  C         -5.4800   12.1360   10.4160 C.2    60  ASP60       0.2597
     52  O         -5.2360   13.2100   10.9600 O.2    60  ASP60      -0.2718
     53  CB        -4.9040   11.0920    8.1170 C.3    60  ASP60       0.1424
     54  CG        -5.4180   10.9220    6.6850 C.2    60  ASP60       0.3668
     55  OD1       -6.5750   10.4050    6.5400 O.co2  60  ASP60      -0.2456
     56  OD2       -4.6950   11.2820    5.7290 O.co2  60  ASP60      -0.2456
     57  N         -5.5560   10.9890   11.0870 N.am   61  PHE61      -0.1976
     58  CA        -5.4900   10.9350   12.5300 C.3    61  PHE61       0.1639
     59  C         -4.3220   10.0900   13.0500 C.2    61  PHE61       0.2290
     60  O         -4.4690    9.4660   14.1050 O.2    61  PHE61      -0.2864
     61  CB        -6.8260   10.4240   13.0710 C.3    61  PHE61       0.0560
     62  CG        -7.9310   11.3810   12.8730 C.ar   61  PHE61      -0.0200
     63  CD1       -8.7620   11.2600   11.7790 C.ar   61  PHE61      -0.0042
     64  CD2       -8.1610   12.3950   13.7790 C.ar   61  PHE61      -0.0042
     65  CE1       -9.8160   12.1410   11.5910 C.ar   61  PHE61      -0.0003
     66  CE2       -9.2150   13.3140   13.5800 C.ar   61  PHE61      -0.0003
     67  CZ       -10.0360   13.1590   12.4830 C.ar   61  PHE61      -0.0000
     68  N         -1.9720    7.5030   14.4140 N.3    63  CYS63      -0.1221
     69  CA        -2.1910    6.1210   14.8450 C.3    63  CYS63       0.1808
     70  C         -3.6840    5.7320   14.9850 C.2    63  CYS63       0.2602
     71  O         -4.0070    4.5890   15.1920 O.2    63  CYS63      -0.2717
     72  CB        -1.4540    5.7900   16.1400 C.3    63  CYS63       0.0970
     73  SG         0.3040    5.8820   15.9600 S.3    63  CYS63      -0.0800
     74  N         -4.5730    6.7290   14.9610 N.am   64  GLY64      -0.1942
     75  CA        -6.0020    6.4910   15.0920 C.3    64  GLY64       0.2014
     76  C         -6.6720    6.1300   13.7770 C.2    64  GLY64       0.2639
     77  O         -7.8580    5.7910   13.7450 O.2    64  GLY64      -0.2714
     78  N         -5.9630    6.2980   12.6740 N.am   65  GLY65      -0.1939
     79  CA        -6.5080    5.9000   11.3790 C.3    65  GLY65       0.2014
     80  C         -6.4580    7.0250   10.3580 C.2    65  GLY65       0.2639
     81  O         -6.1610    8.1920   10.6600 O.2    65  GLY65      -0.2714
     82  N         -6.8310    6.6660    9.1330 N.am   66  GLY66      -0.1939
     83  CA        -6.6970    7.5880    8.0010 C.3    66  GLY66       0.2014
     84  C         -7.1360    6.9660    6.7150 C.2    66  GLY66       0.2639
     85  O         -7.5220    5.7890    6.6960 O.2    66  GLY66      -0.2714
     86  N         -7.0540    7.7360    5.6320 N.am   67  LEU67      -0.1963
     87  CA        -7.4190    7.2550    4.3380 C.3    67  LEU67       0.1728
     88  C         -6.2780    7.6070    3.3780 C.2    67  LEU67       0.2616
     89  O         -5.7420    8.7240    3.4480 O.2    67  LEU67      -0.2715
     90  CB        -8.6950    7.9580    3.8390 C.3    67  LEU67       0.0311
     91  CG       -10.0180    7.6650    4.5490 C.3    67  LEU67       0.0022
     92  CD1      -11.1450    8.6020    3.9990 C.3    67  LEU67       0.0001
     93  CD2      -10.3640    6.1710    4.4620 C.3    67  LEU67       0.0001
     94  N         -5.9530    6.6810    2.4610 N.am   68  MET68      -0.1977
     95  CA        -4.9650    6.9390    1.3930 C.3    68  MET68       0.1605
     96  C         -5.3490    8.1680    0.5700 C.2    68  MET68       0.2287
     97  O         -4.4840    9.0070    0.2930 O.2    68  MET68      -0.2864
     98  CB        -4.7290    5.7020    0.4910 C.3    68  MET68       0.0413
     99  CG        -4.0790    4.4900    1.2270 C.3    68  MET68       0.0598
    100  SD        -5.2760    3.5620    2.2560 S.3    68  MET68      -0.1393
    101  CE        -6.0220    2.5420    0.9740 C.3    68  MET68       0.0692
    102  N         -6.8960   10.8690    1.4730 N.3    70  ASN70      -0.1240
    103  CA        -6.5950   12.0700    2.2230 C.3    70  ASN70       0.1653
    104  C         -5.0870   12.3020    2.2450 C.2    70  ASN70       0.2266
    105  O         -4.5890   13.4260    2.0990 O.2    70  ASN70      -0.2867
    106  CB        -7.0290   11.8890    3.6820 C.3    70  ASN70       0.1155
    107  CG        -8.5750   11.9820    3.9260 C.2    70  ASN70       0.2627
    108  OD1       -9.3290   12.3960    3.0690 O.2    70  ASN70      -0.2716
    109  ND2       -8.9990   11.6190    5.1530 N.am   70  ASN70      -0.0877
    110  N         -7.7300   -0.6760   -0.3200 N.3   138  ALA138     -0.1245
    111  CA        -8.3340   -0.9460    0.9650 C.3   138  ALA138      0.1562
    112  C         -9.0210   -2.3290    0.9690 C.2   138  ALA138      0.2260
    113  O         -9.5130   -2.7770   -0.0580 O.2   138  ALA138     -0.2867
    114  CB        -9.4170    0.1490    1.2980 C.3   138  ALA138      0.0290
    115  N         -9.9560   -6.3750    6.7080 N.3   141  ALA141     -0.1245
    116  CA        -8.8310   -7.1780    7.2300 C.3   141  ALA141      0.1562
    117  C         -9.2690   -8.2430    8.2420 C.2   141  ALA141      0.2260
    118  O         -8.4390   -8.8900    8.8230 O.2   141  ALA141     -0.2867
    119  CB        -7.7940   -6.2750    7.8150 C.3   141  ALA141      0.0290
    120  N         -6.3800  -11.6770   10.1070 N.3   145  MET145     -0.1245
    121  CA        -5.8950  -11.8560   11.4560 C.3   145  MET145      0.1570
    122  C         -5.4140  -13.2890   11.7240 C.2   145  MET145      0.2261
    123  O         -4.4450  -13.4790   12.4540 O.2   145  MET145     -0.2867
    124  CB        -6.9600  -11.4250   12.4750 C.3   145  MET145      0.0387
    125  CG        -7.4330   -9.9690   12.3640 C.3   145  MET145      0.0595
    126  SD        -6.1330   -8.7470   12.6420 S.3   145  MET145     -0.1393
    127  CE        -6.9980   -7.2370   12.1060 C.3   145  MET145      0.0692
    128  N        -14.5880   -2.0920    4.8990 N.3   160  LEU160     -0.1231
    129  CA       -13.1620   -1.7010    4.6410 C.3   160  LEU160      0.1693
    130  C        -12.5680   -1.1020    5.9040 C.2   160  LEU160      0.2592
    131  O        -13.1240   -0.1460    6.5070 O.2   160  LEU160     -0.2718
    132  CB       -13.0740   -0.7070    3.4990 C.3   160  LEU160      0.0284
    133  CG       -13.5980   -1.1400    2.1510 C.3   160  LEU160      0.0019
    134  CD1      -13.6280    0.0680    1.1540 C.3   160  LEU160      0.0001
    135  CD2      -12.7280   -2.2380    1.6080 C.3   160  LEU160      0.0001
    136  N        -11.4370   -1.6350    6.3590 N.am  161  ASP161     -0.1960
    137  CA       -10.8150   -1.1540    7.5730 C.3   161  ASP161      0.1840
    138  C         -9.2750   -1.1680    7.5460 C.2   161  ASP161      0.2622
    139  O         -8.6410   -0.8770    8.5710 O.2   161  ASP161     -0.2715
    140  CB       -11.3210   -1.9040    8.7960 C.3   161  ASP161      0.1450
    141  CG       -10.9380   -3.3760    8.8240 C.2   161  ASP161      0.3671
    142  OD1      -11.3850   -4.0650    9.8180 O.co2 161  ASP161     -0.2456
    143  OD2      -10.2720   -3.9050    7.9100 O.co2 161  ASP161     -0.2456
    144  N         -8.6990   -1.4540    6.3790 N.am  162  HIS162     -0.1959
    145  CA        -7.2430   -1.6140    6.3030 C.3   162  HIS162      0.1787
    146  C         -6.7430   -1.1870    4.9330 C.2   162  HIS162      0.2620
    147  O         -7.4480   -1.3990    3.9300 O.2   162  HIS162     -0.2715
    148  CB        -6.9340   -3.0840    6.5880 C.3   162  HIS162      0.0785
    149  CG        -5.4730   -3.4490    6.6760 C.ar  162  HIS162      0.0821
    150  ND1       -4.5110   -2.5990    7.1680 N.ar  162  HIS162     -0.2267
    151  CD2       -4.8300   -4.5940    6.3210 C.ar  162  HIS162      0.1154
    152  CE1       -3.3370   -3.2180    7.1190 C.ar  162  HIS162      0.1986
    153  NE2       -3.5030   -4.4440    6.6570 N.ar  162  HIS162     -0.2212
    154  N         -5.5700   -0.5670    4.8900 N.am  163  GLY163     -0.1954
    155  CA        -4.9430   -0.1410    3.6650 C.3   163  GLY163      0.1869
    156  C         -3.6660   -0.9550    3.4700 C.2   163  GLY163      0.2309
    157  O         -2.8270   -1.0900    4.4100 O.2   163  GLY163     -0.2863
    158  N          2.7620   -5.6350    8.5580 N.3   184  TRP184     -0.1241
    159  CA         2.7340   -6.2540    9.9130 C.3   184  TRP184      0.1605
    160  C          4.0160   -7.0780   10.1690 C.2   184  TRP184      0.2264
    161  O          3.9510   -8.0300   10.9550 O.2   184  TRP184     -0.2867
    162  CB         1.5030   -7.0970   10.1550 C.3   184  TRP184      0.0550
    163  CG         0.1570   -6.4020   10.0980 C.ar  184  TRP184      0.0003
    164  CD1       -0.1020   -5.0610   10.0900 C.ar  184  TRP184      0.0946
    165  CD2       -1.1090   -7.0430    9.9950 C.ar  184  TRP184      0.0152
    166  NE1       -1.4660   -4.8350   10.0090 N.ar  184  TRP184     -0.2442
    167  CE2       -2.0960   -6.0400    9.9600 C.ar  184  TRP184      0.0810
    168  CE3       -1.5130   -8.3760    9.9140 C.ar  184  TRP184      0.0012
    169  CZ2       -3.4510   -6.3410    9.8290 C.ar  184  TRP184      0.0191
    170  CZ3       -2.8700   -8.6550    9.8360 C.ar  184  TRP184      0.0001
    171  CH2       -3.8060   -7.6450    9.7690 C.ar  184  TRP184      0.0015
    172  N        -11.7410    0.6160   -3.3150 N.3   208  ALA208     -0.1245
    173  CA       -11.0570    1.8560   -3.0000 C.3   208  ALA208      0.1562
    174  C         -9.5870    1.7300   -3.4020 C.2   208  ALA208      0.2260
    175  O         -8.6770    1.8130   -2.5660 O.2   208  ALA208     -0.2867
    176  CB       -11.2200    2.1990   -1.5200 C.3   208  ALA208      0.0290
@<TRIPOS>BOND
     1   174   173    1
     2   174   175    2
     3   172   173    1
     4   173   176    1
     5   110   111    1
     6   113   112    2
     7    97    96    2
     8    98    99    1
     9    98    95    1
    10    96    95    1
    11   111   112    1
    12   111   114    1
    13   101   100    1
    14   134   133    1
    15    99   100    1
    16    95    94    1
    17   102   103    1
    18   135   133    1
    19   105   104    2
    20   133   132    1
    21   103   104    1
    22   103   106    1
    23    94    88   am
    24   108   107    2
    25    88    89    2
    26    88    87    1
    27   156   155    1
    28   156   157    2
    29   132   129    1
    30   155   154    1
    31   106   107    1
    32    90    87    1
    33    90    91    1
    34   107   109   am
    35   147   146    2
    36    38    37    2
    37    92    91    1
    38    87    86    1
    39    93    91    1
    40   129   128    1
    41   129   130    1
    42   154   146   am
    43   146   145    1
    44    37    36    1
    45    32    31    2
    46    36    39    1
    47    36    35    1
    48    86    84   am
    49    56    54   ar
    50   130   136   am
    51   130   131    2
    52    39    40    1
    53   145   144    1
    54   145   148    1
    55    45    47   ar
    56    45    42   ar
    57   151   153   ar
    58   151   149   ar
    59   136   137    1
    60   144   138   am
    61    55    54   ar
    62   148   149    1
    63    31    35   am
    64    31    30    1
    65   153   152   ar
    66   149   150   ar
    67    47    48   ar
    68    54    53    1
    69    85    84    2
    70   115   116    1
    71    84    83    1
    72   152   150   ar
    73   116   119    1
    74   116   117    1
    75    40    42   ar
    76    40    41   ar
    77    42    44   ar
    78   138   137    1
    79   138   139    2
    80   137   140    1
    81    30    33    1
    82    30    29    1
    83   143   141   ar
    84    33    34    1
    85    83    82    1
    86    48    46   ar
    87    53    50    1
    88   117   118    2
    89    49    50    1
    90   158   159    1
    91    41    43   ar
    92    44    46   ar
    93    44    43   ar
    94   140   141    1
    95   141   142   ar
    96    50    51    1
    97    82    80   am
    98     8     7    2
    99   171   169   ar
   100   171   170   ar
   101   169   167   ar
   102   170   168   ar
   103   159   162    1
   104   159   160    1
   105   168   165   ar
   106   167   165   ar
   107   167   166   ar
   108   165   163   ar
   109   166   164   ar
   110   164   163   ar
   111   163   162    1
   112   120   121    1
   113   160   161    2
   114    80    81    2
   115    80    79    1
   116    51    52    2
   117    51    57   am
   118     7     9   am
   119     7     6    1
   120     1     2    1
   121    57    58    1
   122     5     6    1
   123     5     2    1
   124    79    78    1
   125   121   122    1
   126   121   124    1
   127    28    27    2
   128    65    63   ar
   129    65    67   ar
   130     2     3    1
   131   122   123    2
   132    63    62   ar
   133    27    26    1
   134   127   126    1
   135   125   124    1
   136   125   126    1
   137    67    66   ar
   138    58    59    1
   139    58    61    1
   140    78    76   am
   141    62    61    1
   142    62    64   ar
   143    59    60    2
   144     3     4    2
   145    26    25    1
   146    66    64   ar
   147    22    21    2
   148    77    76    2
   149    76    75    1
   150    68    69    1
   151    24    23    1
   152    24    73    1
   153    25    21   am
   154    21    20    1
   155    69    70    1
   156    69    72    1
   157    74    70   am
   158    74    75    1
   159    70    71    2
   160    23    20    1
   161    20    19    1
   162    73    72    1
   163    19    12   am
   164    10    11    1
   165    12    11    1
   166    12    13    2
   167    11    14    1
   168    14    15    1
   169    15    16    1
   170    16    18   am
   171    16    17    2
