@<TRIPOS>MOLECULE
tmp/2p85E01.pdb
 115 111 0 0 0
SMALL
GASTEIGER

@<TRIPOS>ATOM
      1  N         54.1820  -70.2050   66.0410 N.3    77  PHE77      -0.1241
      2  CA        55.5460  -70.5200   66.3920 C.3    77  PHE77       0.1605
      3  C         56.3720  -69.2980   66.7620 C.2    77  PHE77       0.2264
      4  O         57.2470  -69.3930   67.6170 O.2    77  PHE77      -0.2867
      5  CB        56.2260  -71.2880   65.2610 C.3    77  PHE77       0.0534
      6  CG        55.6430  -72.6380   65.0290 C.ar   77  PHE77      -0.0203
      7  CD1       55.0310  -72.9520   63.8210 C.ar   77  PHE77      -0.0042
      8  CD2       55.6510  -73.5880   66.0440 C.ar   77  PHE77      -0.0042
      9  CE1       54.4300  -74.1930   63.6340 C.ar   77  PHE77      -0.0003
     10  CE2       55.0510  -74.8320   65.8610 C.ar   77  PHE77      -0.0003
     11  CZ        54.4380  -75.1360   64.6560 C.ar   77  PHE77      -0.0000
     12  N         59.6760  -68.6560   69.3820 N.3    81  PHE81      -0.1241
     13  CA        61.0080  -68.4160   68.8470 C.3    81  PHE81       0.1605
     14  C         61.5240  -66.9870   68.8280 C.2    81  PHE81       0.2264
     15  O         62.7490  -66.7630   68.8550 O.2    81  PHE81      -0.2867
     16  CB        61.1240  -69.0690   67.4660 C.3    81  PHE81       0.0534
     17  CG        61.0010  -70.5680   67.5150 C.ar   81  PHE81      -0.0203
     18  CD1       59.7540  -71.1880   67.4020 C.ar   81  PHE81      -0.0042
     19  CD2       62.1330  -71.3670   67.7410 C.ar   81  PHE81      -0.0042
     20  CE1       59.6250  -72.5800   67.5140 C.ar   81  PHE81      -0.0003
     21  CE2       62.0170  -72.7570   67.8580 C.ar   81  PHE81      -0.0003
     22  CZ        60.7620  -73.3660   67.7440 C.ar   81  PHE81      -0.0000
     23  N         65.2090  -72.0490   61.8490 N.3    87  ALA87      -0.1231
     24  CA        64.0380  -71.9300   60.9970 C.3    87  ALA87       0.1694
     25  C         63.2810  -70.6040   60.9670 C.2    87  ALA87       0.2592
     26  O         62.9820  -70.0980   59.8920 O.2    87  ALA87      -0.2718
     27  CB        63.0730  -73.0570   61.3100 C.3    87  ALA87       0.0304
     28  N         62.9530  -70.0560   62.1300 N.am   88  PHE88      -0.1976
     29  CA        62.2020  -68.8130   62.1880 C.3    88  PHE88       0.1639
     30  C         63.0340  -67.5570   62.3560 C.2    88  PHE88       0.2290
     31  O         62.6100  -66.5980   63.0020 O.2    88  PHE88      -0.2864
     32  CB        61.1330  -68.9150   63.2810 C.3    88  PHE88       0.0560
     33  CG        60.2050  -70.0590   63.0650 C.ar   88  PHE88      -0.0200
     34  CD1       60.3400  -71.2290   63.7930 C.ar   88  PHE88      -0.0042
     35  CD2       59.2700  -70.0160   62.0350 C.ar   88  PHE88      -0.0042
     36  CE1       59.5630  -72.3440   63.4980 C.ar   88  PHE88      -0.0003
     37  CE2       58.4940  -71.1200   61.7270 C.ar   88  PHE88      -0.0003
     38  CZ        58.6410  -72.2960   62.4650 C.ar   88  PHE88      -0.0000
     39  N         51.2680  -78.3410   66.3790 N.3   179  PHE179     -0.1241
     40  CA        51.2800  -78.4510   64.9340 C.3   179  PHE179      0.1605
     41  C         49.8530  -78.3600   64.3920 C.2   179  PHE179      0.2264
     42  O         49.5440  -77.5450   63.5230 O.2   179  PHE179     -0.2867
     43  CB        51.8710  -79.7970   64.5330 C.3   179  PHE179      0.0534
     44  CG        52.2360  -79.8980   63.0830 C.ar  179  PHE179     -0.0203
     45  CD1       53.0840  -78.9660   62.4970 C.ar  179  PHE179     -0.0042
     46  CD2       51.7730  -80.9570   62.3140 C.ar  179  PHE179     -0.0042
     47  CE1       53.4640  -79.0930   61.1700 C.ar  179  PHE179     -0.0003
     48  CE2       52.1500  -81.0890   60.9910 C.ar  179  PHE179     -0.0003
     49  CZ        53.0010  -80.1520   60.4180 C.ar  179  PHE179     -0.0000
     50  N         65.2190  -77.2930   69.1700 N.3   266  LEU266     -0.1231
     51  CA        63.7740  -77.5160   69.1400 C.3   266  LEU266      0.1693
     52  C         63.2430  -77.5500   67.6940 C.2   266  LEU266      0.2592
     53  O         62.2690  -78.2470   67.4100 O.2   266  LEU266     -0.2718
     54  CB        63.0350  -76.4230   69.9220 C.3   266  LEU266      0.0284
     55  CG        61.5130  -76.5550   69.8600 C.3   266  LEU266      0.0019
     56  CD1       61.1200  -77.9940   70.1480 C.3   266  LEU266      0.0001
     57  CD2       60.8640  -75.6240   70.8470 C.3   266  LEU266      0.0001
     58  N         63.8700  -76.7800   66.8000 N.am  267  ASN267     -0.1974
     59  CA        63.4850  -76.7490   65.3840 C.3   267  ASN267      0.1688
     60  C         63.7190  -78.1540   64.7980 C.2   267  ASN267      0.2292
     61  O         62.8240  -78.7290   64.1840 O.2   267  ASN267     -0.2864
     62  CB        64.3460  -75.7390   64.5980 C.3   267  ASN267      0.1181
     63  CG        63.9190  -74.3000   64.8040 C.2   267  ASN267      0.2629
     64  OD1       64.6640  -73.3760   64.4960 O.2   267  ASN267     -0.2716
     65  ND2       62.7120  -74.1020   65.3020 N.am  267  ASN267     -0.0877
     66  N         61.3580  -80.9490   66.5320 N.3   270  PHE270     -0.1227
     67  CA        59.9460  -80.8310   66.1650 C.3   270  PHE270      0.1736
     68  C         59.7730  -81.2370   64.6890 C.2   270  PHE270      0.2595
     69  O         59.1250  -82.2340   64.3770 O.2   270  PHE270     -0.2718
     70  CB        59.4980  -79.3810   66.4020 C.3   270  PHE270      0.0547
     71  CG        58.0150  -79.2120   66.5830 C.ar  270  PHE270     -0.0202
     72  CD1       57.5200  -78.4230   67.6070 C.ar  270  PHE270     -0.0042
     73  CD2       57.1150  -79.8110   65.7050 C.ar  270  PHE270     -0.0042
     74  CE1       56.1510  -78.2250   67.7610 C.ar  270  PHE270     -0.0003
     75  CE2       55.7420  -79.6200   65.8470 C.ar  270  PHE270     -0.0003
     76  CZ        55.2610  -78.8240   66.8780 C.ar  270  PHE270     -0.0000
     77  N         60.3790  -80.4730   63.7880 N.am  271  ALA271     -0.1980
     78  CA        60.2940  -80.7610   62.3600 C.3   271  ALA271      0.1597
     79  C         60.6250  -82.2310   62.0740 C.2   271  ALA271      0.2287
     80  O         59.8690  -82.9430   61.3890 O.2   271  ALA271     -0.2864
     81  CB        61.2510  -79.8620   61.6060 C.3   271  ALA271      0.0319
     82  N         56.6240  -83.9890   60.9000 N.3   275  THR275     -0.1218
     83  CA        56.4410  -84.0630   59.4580 C.3   275  THR275      0.1862
     84  C         56.4480  -85.4850   58.9210 C.2   275  THR275      0.2287
     85  O         55.4880  -85.9040   58.2790 O.2   275  THR275     -0.2866
     86  CB        57.5090  -83.2370   58.7130 C.3   275  THR275      0.1770
     87  OG1       58.8020  -83.7850   58.9620 O.3   275  THR275     -0.2211
     88  CG2       57.4880  -81.7920   59.1700 C.3   275  THR275      0.0375
     89  N         52.5340  -78.7770   54.0480 N.3   336  LEU336     -0.1245
     90  CA        52.5030  -77.3190   54.2170 C.3   336  LEU336      0.1561
     91  C         51.9190  -76.6910   52.9380 C.2   336  LEU336      0.2260
     92  O         52.6390  -76.1340   52.1160 O.2   336  LEU336     -0.2867
     93  CB        53.9190  -76.7710   54.4970 C.3   336  LEU336      0.0270
     94  CG        54.6680  -77.4300   55.6760 C.3   336  LEU336      0.0019
     95  CD1       55.9110  -76.6390   56.0090 C.3   336  LEU336      0.0001
     96  CD2       53.7880  -77.5150   56.9000 C.3   336  LEU336      0.0001
     97  N         55.9740  -72.3040   54.0620 N.3   340  LEU340     -0.1245
     98  CA        56.3880  -71.6200   55.2820 C.3   340  LEU340      0.1561
     99  C         56.6940  -70.2360   54.6950 C.2   340  LEU340      0.2260
    100  O         57.3690  -70.1290   53.6670 O.2   340  LEU340     -0.2867
    101  CB        57.6530  -72.2620   55.8760 C.3   340  LEU340      0.0270
    102  CG        58.2580  -71.6800   57.1640 C.3   340  LEU340      0.0019
    103  CD1       57.1870  -71.5150   58.2580 C.3   340  LEU340      0.0001
    104  CD2       59.3750  -72.6010   57.6500 C.3   340  LEU340      0.0001
    105  N         47.9350  -74.0590   58.0320 N.3   450  PHE450     -0.1241
    106  CA        49.3820  -74.0580   57.8620 C.3   450  PHE450      0.1605
    107  C         49.8430  -75.4560   57.4500 C.2   450  PHE450      0.2264
    108  O         50.8280  -75.6400   56.7310 O.2   450  PHE450     -0.2867
    109  CB        50.0630  -73.6600   59.1710 C.3   450  PHE450      0.0534
    110  CG        51.5520  -73.6230   59.0770 C.ar  450  PHE450     -0.0203
    111  CD1       52.1810  -72.7660   58.1810 C.ar  450  PHE450     -0.0042
    112  CD2       52.3290  -74.4430   59.8700 C.ar  450  PHE450     -0.0042
    113  CE1       53.5670  -72.7310   58.0820 C.ar  450  PHE450     -0.0003
    114  CE2       53.7080  -74.4150   59.7760 C.ar  450  PHE450     -0.0003
    115  CZ        54.3290  -73.5600   58.8840 C.ar  450  PHE450     -0.0000
@<TRIPOS>BOND
     1    92    91    2
     2    91    90    1
     3   100    99    2
     4    89    90    1
     5    97    98    1
     6    90    93    1
     7    93    94    1
     8    99    98    1
     9    98   101    1
    10    94    95    1
    11    94    96    1
    12   101   102    1
    13   108   107    2
    14   102   104    1
    15   102   103    1
    16   107   106    1
    17   106   105    1
    18   106   109    1
    19   113   111   ar
    20   113   115   ar
    21   111   110   ar
    22    85    84    2
    23    86    87    1
    24    86    88    1
    25    86    83    1
    26   115   114   ar
    27    84    83    1
    28   110   109    1
    29   110   112   ar
    30    83    82    1
    31   114   112   ar
    32    26    25    2
    33    49    48   ar
    34    49    47   ar
    35    25    24    1
    36    25    28   am
    37    48    46   ar
    38    24    27    1
    39    24    23    1
    40    47    45   ar
    41    80    79    2
    42    81    78    1
    43    37    35   ar
    44    37    38   ar
    45    35    33   ar
    46    79    78    1
    47    28    29    1
    48    29    30    1
    49    29    32    1
    50    46    44   ar
    51    30    31    2
    52    78    77    1
    53    38    36   ar
    54    45    44   ar
    55    33    32    1
    56    33    34   ar
    57    44    43    1
    58    36    34   ar
    59    42    41    2
    60     9     7   ar
    61     9    11   ar
    62    77    68   am
    63     7     6   ar
    64    61    60    2
    65    69    68    2
    66    41    40    1
    67    64    63    2
    68    43    40    1
    69    62    63    1
    70    62    59    1
    71    11    10   ar
    72    68    67    1
    73    60    59    1
    74    63    65   am
    75    40    39    1
    76     6     5    1
    77     6     8   ar
    78     5     2    1
    79    59    58    1
    80    73    75   ar
    81    73    71   ar
    82    75    76   ar
    83    10     8   ar
    84     1     2    1
    85    67    70    1
    86    67    66    1
    87     2     3    1
    88    70    71    1
    89    71    72   ar
    90     3     4    2
    91    58    52   am
    92    76    74   ar
    93    18    20   ar
    94    18    17   ar
    95    53    52    2
    96    16    17    1
    97    16    13    1
    98    20    22   ar
    99    17    19   ar
   100    72    74   ar
   101    52    51    1
   102    19    21   ar
   103    22    21   ar
   104    14    13    1
   105    14    15    2
   106    13    12    1
   107    51    50    1
   108    51    54    1
   109    55    54    1
   110    55    56    1
   111    55    57    1
