@<TRIPOS>MOLECULE
tmp/2p85B02.pdb
 111 106 0 0 0
SMALL
GASTEIGER

@<TRIPOS>ATOM
      1  N         31.4690  -74.9550    9.8570 N.3    77  PHE77      -0.1241
      2  CA        31.1370  -75.0750   11.2710 C.3    77  PHE77       0.1605
      3  C         30.8170  -73.7230   11.9100 C.2    77  PHE77       0.2264
      4  O         29.9450  -73.6530   12.7730 O.2    77  PHE77      -0.2867
      5  CB        32.2700  -75.7640   12.0520 C.3    77  PHE77       0.0534
      6  CG        32.4760  -77.2020   11.6690 C.ar   77  PHE77      -0.0203
      7  CD1       33.6570  -77.6130   11.0420 C.ar   77  PHE77      -0.0042
      8  CD2       31.4700  -78.1350   11.8850 C.ar   77  PHE77      -0.0042
      9  CE1       33.8320  -78.9440   10.6240 C.ar   77  PHE77      -0.0003
     10  CE2       31.6300  -79.4690   11.4700 C.ar   77  PHE77      -0.0003
     11  CZ        32.8160  -79.8720   10.8350 C.ar   77  PHE77      -0.0000
     12  N         35.7370  -75.4160   20.8180 N.3    87  ALA87      -0.1231
     13  CA        36.6200  -75.5860   19.6730 C.3    87  ALA87       0.1694
     14  C         36.7400  -74.4090   18.7120 C.2    87  ALA87       0.2592
     15  O         37.8120  -74.1470   18.1850 O.2    87  ALA87      -0.2718
     16  CB        36.2240  -76.8710   18.9090 C.3    87  ALA87       0.0304
     17  N         35.6520  -73.6880   18.4820 N.am   88  PHE88      -0.1976
     18  CA        35.7250  -72.5720   17.5510 C.3    88  PHE88       0.1639
     19  C         35.5830  -71.2330   18.2320 C.2    88  PHE88       0.2290
     20  O         35.0470  -70.2910   17.6750 O.2    88  PHE88      -0.2864
     21  CB        34.6830  -72.7510   16.4470 C.3    88  PHE88       0.0560
     22  CG        34.7390  -74.0950   15.8060 C.ar   88  PHE88      -0.0200
     23  CD1       33.7640  -75.0520   16.0810 C.ar   88  PHE88      -0.0042
     24  CD2       35.7980  -74.4370   14.9740 C.ar   88  PHE88      -0.0042
     25  CE1       33.8400  -76.3400   15.5400 C.ar   88  PHE88      -0.0003
     26  CE2       35.8900  -75.7320   14.4220 C.ar   88  PHE88      -0.0003
     27  CZ        34.9050  -76.6850   14.7090 C.ar   88  PHE88      -0.0000
     28  N         30.7170  -83.6830    7.9260 N.3   179  PHE179     -0.1241
     29  CA        32.1680  -83.7470    8.0390 C.3   179  PHE179      0.1605
     30  C         32.7870  -83.9100    6.6670 C.2   179  PHE179      0.2264
     31  O         33.8000  -83.2860    6.3610 O.2   179  PHE179     -0.2867
     32  CB        32.6000  -84.9100    8.9310 C.3   179  PHE179      0.0534
     33  CG        34.0960  -84.9990    9.1390 C.ar  179  PHE179     -0.0203
     34  CD1       34.7900  -83.9670    9.7720 C.ar  179  PHE179     -0.0042
     35  CD2       34.8070  -86.1260    8.7250 C.ar  179  PHE179     -0.0042
     36  CE1       36.1700  -84.0570    9.9920 C.ar  179  PHE179     -0.0003
     37  CE2       36.1870  -86.2250    8.9450 C.ar  179  PHE179     -0.0003
     38  CZ        36.8710  -85.1840    9.5840 C.ar  179  PHE179     -0.0000
     39  N         30.7860  -80.0560   20.2220 N.3   267  ASN267     -0.1240
     40  CA        32.1810  -80.1180   19.8020 C.3   267  ASN267      0.1653
     41  C         32.7390  -81.4800   20.1950 C.2   267  ASN267      0.2266
     42  O         33.3430  -82.1760   19.3830 O.2   267  ASN267     -0.2867
     43  CB        33.0030  -79.0340   20.4880 C.3   267  ASN267      0.1155
     44  CG        32.8840  -77.6680   19.8190 C.2   267  ASN267      0.2627
     45  OD1       33.0820  -76.6570   20.4760 O.2   267  ASN267     -0.2716
     46  ND2       32.5950  -77.6340   18.5070 N.am  267  ASN267     -0.0877
     47  N         30.9270  -84.5330   18.4250 N.3   270  PHE270     -0.1227
     48  CA        31.3430  -84.5950   17.0290 C.3   270  PHE270      0.1736
     49  C         32.7870  -85.0900   16.9000 C.2   270  PHE270      0.2595
     50  O         33.0290  -86.2310   16.4790 O.2   270  PHE270     -0.2718
     51  CB        31.1940  -83.1950   16.4110 C.3   270  PHE270      0.0547
     52  CG        30.9600  -83.1860   14.9170 C.ar  270  PHE270     -0.0202
     53  CD1       29.8360  -82.5470   14.3870 C.ar  270  PHE270     -0.0042
     54  CD2       31.8660  -83.7740   14.0380 C.ar  270  PHE270     -0.0042
     55  CE1       29.6250  -82.4950   13.0090 C.ar  270  PHE270     -0.0003
     56  CE2       31.6600  -83.7250   12.6510 C.ar  270  PHE270     -0.0003
     57  CZ        30.5390  -83.0850   12.1420 C.ar  270  PHE270     -0.0000
     58  N         33.7350  -84.2230   17.2640 N.am  271  ALA271     -0.1980
     59  CA        35.1780  -84.5060   17.2070 C.3   271  ALA271      0.1597
     60  C         35.5910  -85.8730   17.7500 C.2   271  ALA271      0.2287
     61  O         36.5000  -86.4960   17.2200 O.2   271  ALA271     -0.2864
     62  CB        35.9530  -83.4200   17.9540 C.3   271  ALA271      0.0319
     63  N         33.7650  -88.8490   14.6110 N.3   274  GLU274     -0.1231
     64  CA        34.2920  -88.9830   13.2710 C.3   274  GLU274      0.1699
     65  C         35.7840  -89.2580   13.1290 C.2   274  GLU274      0.2592
     66  O         36.1730  -90.0340   12.2520 O.2   274  GLU274     -0.2718
     67  CB        33.9280  -87.7640   12.4360 C.3   274  GLU274      0.0402
     68  CG        33.8910  -88.0720   10.9560 C.3   274  GLU274      0.1161
     69  CD        32.6760  -88.9150   10.5660 C.2   274  GLU274      0.3649
     70  OE1       32.6980  -89.5050    9.4630 O.co2 274  GLU274     -0.2457
     71  OE2       31.7030  -88.9790   11.3550 O.co2 274  GLU274     -0.2457
     72  N         36.6270  -88.6470   13.9660 N.am  275  THR275     -0.1953
     73  CA        38.0710  -88.8740   13.8300 C.3   275  THR275      0.1897
     74  C         38.5480  -90.2860   14.1720 C.2   275  THR275      0.2313
     75  O         39.2860  -90.8930   13.4110 O.2   275  THR275     -0.2863
     76  CB        38.9010  -87.8880   14.6740 C.3   275  THR275      0.1794
     77  OG1       38.3820  -87.8420   16.0060 O.3   275  THR275     -0.2208
     78  CG2       38.9020  -86.5030   14.0490 C.3   275  THR275      0.0378
     79  N         43.4200  -84.6510    9.4580 N.3   336  LEU336     -0.1245
     80  CA        43.2180  -83.2290    9.1680 C.3   336  LEU336      0.1561
     81  C         44.5500  -82.7040    8.6910 C.2   336  LEU336      0.2260
     82  O         45.3600  -82.2260    9.4870 O.2   336  LEU336     -0.2867
     83  CB        42.8100  -82.4870   10.4340 C.3   336  LEU336      0.0270
     84  CG        41.5960  -83.1410   11.0860 C.3   336  LEU336      0.0019
     85  CD1       41.4030  -82.6170   12.4870 C.3   336  LEU336      0.0001
     86  CD2       40.3670  -82.8770   10.2230 C.3   336  LEU336      0.0001
     87  N         43.3110  -77.7020   12.1410 N.3   340  LEU340     -0.1245
     88  CA        42.2550  -76.7120   12.2710 C.3   340  LEU340      0.1561
     89  C         42.9330  -75.3250   12.2340 C.2   340  LEU340      0.2260
     90  O         43.9740  -75.1250   12.8470 O.2   340  LEU340     -0.2867
     91  CB        41.5250  -76.9200   13.5780 C.3   340  LEU340      0.0270
     92  CG        40.3600  -75.9780   13.8110 C.3   340  LEU340      0.0019
     93  CD1       39.4310  -75.9260   12.5680 C.3   340  LEU340      0.0001
     94  CD2       39.6180  -76.4610   15.0530 C.3   340  LEU340      0.0001
     95  N         44.9320  -80.9930   20.3960 N.3   409  CYS409     -0.1235
     96  CA        43.7580  -81.8060   20.7500 C.3   409  CYS409      0.1677
     97  C         43.8260  -82.3790   22.1500 C.2   409  CYS409      0.2270
     98  O         44.6090  -83.2860   22.4170 O.2   409  CYS409     -0.2867
     99  CB        43.5660  -82.9640   19.7650 C.3   409  CYS409      0.0956
    100  SG        42.3090  -84.1260   20.2980 S.3   409  CYS409     -0.0801
    101  N         39.4390  -80.4260    4.0550 N.3   450  PHE450     -0.1241
    102  CA        39.6800  -80.1230    5.4510 C.3   450  PHE450      0.1605
    103  C         40.0630  -81.4220    6.1570 C.2   450  PHE450      0.2264
    104  O         40.6970  -81.3990    7.2120 O.2   450  PHE450     -0.2867
    105  CB        38.4130  -79.5360    6.0710 C.3   450  PHE450      0.0534
    106  CG        38.4780  -79.4000    7.5630 C.ar  450  PHE450     -0.0203
    107  CD1       39.3100  -78.4410    8.1570 C.ar  450  PHE450     -0.0042
    108  CD2       37.7160  -80.2360    8.3800 C.ar  450  PHE450     -0.0042
    109  CE1       39.3810  -78.3180    9.5330 C.ar  450  PHE450     -0.0003
    110  CE2       37.7760  -80.1240    9.7500 C.ar  450  PHE450     -0.0003
    111  CZ        38.6160  -79.1580   10.3370 C.ar  450  PHE450     -0.0000
@<TRIPOS>BOND
     1   101   102    1
     2   102   105    1
     3   102   103    1
     4   105   106    1
     5   103   104    2
     6    31    30    2
     7    30    29    1
     8   106   107   ar
     9   106   108   ar
    10    28    29    1
    11    29    32    1
    12   107   109   ar
    13   108   110   ar
    14    81    80    1
    15    81    82    2
    16    35    37   ar
    17    35    33   ar
    18    32    33    1
    19    37    38   ar
    20    33    34   ar
    21    80    79    1
    22    80    83    1
    23    70    69   ar
    24   109   111   ar
    25    38    36   ar
    26   110   111   ar
    27    34    36   ar
    28     1     2    1
    29    86    84    1
    30    83    84    1
    31    69    68    1
    32    69    71   ar
    33     9    11   ar
    34     9     7   ar
    35    11    10   ar
    36    68    67    1
    37     7     6   ar
    38    84    85    1
    39     2     3    1
    40     2     5    1
    41    10     8   ar
    42     6     8   ar
    43     6     5    1
    44     3     4    2
    45    87    88    1
    46    57    56   ar
    47    57    55   ar
    48    89    88    1
    49    89    90    2
    50    66    65    2
    51    88    91    1
    52    67    64    1
    53    93    92    1
    54    56    54   ar
    55    55    53   ar
    56    65    64    1
    57    65    72   am
    58    64    63    1
    59    75    74    2
    60    91    92    1
    61    92    94    1
    62    73    72    1
    63    73    74    1
    64    73    76    1
    65    54    52   ar
    66    78    76    1
    67    53    52   ar
    68    26    27   ar
    69    26    24   ar
    70    76    77    1
    71    27    25   ar
    72    52    51    1
    73    24    22   ar
    74    25    23   ar
    75    22    23   ar
    76    22    21    1
    77    51    48    1
    78    21    18    1
    79    50    49    2
    80    49    48    1
    81    49    58   am
    82    48    47    1
    83    59    58    1
    84    59    60    1
    85    59    62    1
    86    61    60    2
    87    18    19    1
    88    18    17    1
    89    20    19    2
    90    15    14    2
    91    17    14   am
    92    46    44   am
    93    14    13    1
    94    16    13    1
    95    42    41    2
    96    13    12    1
    97    99   100    1
    98    99    96    1
    99    40    41    1
   100    40    39    1
   101    40    43    1
   102    44    45    2
   103    44    43    1
   104    95    96    1
   105    96    97    1
   106    97    98    2
