@<TRIPOS>MOLECULE
tmp/2p86A00.pdb
 150 145 0 0 0
SMALL
GASTEIGER

@<TRIPOS>ATOM
      1  N         10.2920    8.4940   13.6940 N.3    19  GLN19      -0.1245
      2  CA         9.4880    9.6710   13.4360 C.3    19  GLN19       0.1566
      3  C         10.1930   10.9560   13.8150 C.2    19  GLN19       0.2260
      4  O          9.8220   12.0330   13.3630 O.2    19  GLN19      -0.2867
      5  CB         8.1270    9.5470   14.0790 C.3    19  GLN19       0.0367
      6  CG         8.1710    9.6750   15.6040 C.3    19  GLN19       0.0905
      7  CD         6.8370    9.3340   16.2520 C.2    19  GLN19       0.2608
      8  OE1        6.3230    8.2280   16.1700 O.2    19  GLN19      -0.2717
      9  NE2        6.2910   10.2660   16.9260 N.am   19  GLN19      -0.0878
     10  N          4.9210   14.5610   15.5670 N.3    23  GLY23      -0.1225
     11  CA         3.8380   13.6900   16.0140 C.3    23  GLY23       0.1811
     12  C          3.1650   12.9380   14.9020 C.2    23  GLY23       0.2280
     13  O          1.9460   12.9790   14.7210 O.2    23  GLY23      -0.2866
     14  N          3.2780    9.5360   14.3700 N.3    25  CYS25      -0.1221
     15  CA         3.0680    8.1310   14.6630 C.3    25  CYS25       0.1808
     16  C          1.9750    7.5100   13.8430 C.2    25  CYS25       0.2601
     17  O          2.1130    6.3780   13.3710 O.2    25  CYS25      -0.2717
     18  CB         2.7130    7.9670   16.1530 C.3    25  CYS25       0.0970
     19  SG         1.2390    8.9620   16.6770 S.3    25  CYS25      -0.0800
     20  N          0.8520    8.2150   13.6730 N.am   26  TRP26      -0.1976
     21  CA        -0.2800    7.7370   12.9180 C.3    26  TRP26       0.1640
     22  C          0.0820    7.3630   11.4880 C.2    26  TRP26       0.2290
     23  O         -0.4770    6.4260   10.9240 O.2    26  TRP26      -0.2864
     24  CB        -1.3790    8.8290   12.9400 C.3    26  TRP26       0.0576
     25  CG        -0.9250   10.1290   12.3750 C.ar   26  TRP26       0.0006
     26  CD1       -0.2930   11.1600   13.0440 C.ar   26  TRP26       0.0946
     27  CD2       -0.9930   10.5490   10.9920 C.ar   26  TRP26       0.0152
     28  NE1        0.0170   12.1670   12.1710 N.ar   26  TRP26      -0.2442
     29  CE2       -0.3820   11.8160   10.9020 C.ar   26  TRP26       0.0810
     30  CE3       -1.5340    9.9650    9.8690 C.ar   26  TRP26       0.0012
     31  CZ2       -0.2940   12.5330    9.7160 C.ar   26  TRP26       0.0191
     32  CZ3       -1.4400   10.6720    8.6530 C.ar   26  TRP26       0.0001
     33  CH2       -0.8120   11.9430    8.5900 C.ar   26  TRP26       0.0015
     34  N         -3.1530   16.0490   10.4380 N.3    61  PHE61      -0.1241
     35  CA        -2.5430   17.2960   10.8320 C.3    61  PHE61       0.1605
     36  C         -1.0270   17.2330   10.7930 C.2    61  PHE61       0.2264
     37  O         -0.3790   17.9850   11.5040 O.2    61  PHE61      -0.2867
     38  CB        -3.0230   17.7440   12.2210 C.3    61  PHE61       0.0534
     39  CG        -4.5230   17.7030   12.3660 C.ar   61  PHE61      -0.0203
     40  CD1       -5.1110   16.8370   13.2260 C.ar   61  PHE61      -0.0042
     41  CD2       -5.3180   18.5380   11.5970 C.ar   61  PHE61      -0.0042
     42  CE1       -6.5020   16.7990   13.3380 C.ar   61  PHE61      -0.0003
     43  CE2       -6.6870   18.5110   11.7090 C.ar   61  PHE61      -0.0003
     44  CZ        -7.2720   17.6470   12.5850 C.ar   61  PHE61      -0.0000
     45  N          2.6100   16.7620   11.6140 N.3    63  CYS63      -0.1221
     46  CA         3.2510   16.5340   12.8930 C.3    63  CYS63       0.1808
     47  C          2.3700   16.8250   14.0880 C.2    63  CYS63       0.2602
     48  O          2.7300   16.4650   15.2040 O.2    63  CYS63      -0.2717
     49  CB         4.5380   17.3700   13.0150 C.3    63  CYS63       0.0970
     50  SG         5.8580   16.9200   11.8540 S.3    63  CYS63      -0.0800
     51  N          1.2220   17.4540   13.8740 N.am   64  GLY64      -0.1942
     52  CA         0.2770   17.7450   14.9490 C.3    64  GLY64       0.2014
     53  C         -0.6270   16.5950   15.3300 C.2    64  GLY64       0.2639
     54  O         -1.3930   16.7450   16.3000 O.2    64  GLY64      -0.2714
     55  N         -0.5920   15.4870   14.5980 N.am   65  GLY65      -0.1939
     56  CA        -1.3580   14.3110   14.9020 C.3    65  GLY65       0.2014
     57  C         -2.3010   13.8890   13.8100 C.2    65  GLY65       0.2639
     58  O         -2.4570   14.5490   12.7990 O.2    65  GLY65      -0.2714
     59  N         -2.9220   12.7330   14.0190 N.am   66  GLY66      -0.1939
     60  CA        -3.7420   12.1400   12.9930 C.3    66  GLY66       0.2014
     61  C         -4.3080   10.8130   13.4490 C.2    66  GLY66       0.2639
     62  O         -4.0180   10.3240   14.5330 O.2    66  GLY66      -0.2714
     63  N         -5.1390   10.2350   12.5910 N.am   67  LEU67      -0.1963
     64  CA        -5.7550    8.9360   12.8220 C.3    67  LEU67       0.1728
     65  C         -5.4830    8.0300   11.6390 C.2    67  LEU67       0.2616
     66  O         -5.6220    8.4680   10.4850 O.2    67  LEU67      -0.2715
     67  CB        -7.2750    9.0390   12.9730 C.3    67  LEU67       0.0311
     68  CG        -7.7840    9.8730   14.1370 C.3    67  LEU67       0.0022
     69  CD1       -9.2910   10.0590   14.0530 C.3    67  LEU67       0.0001
     70  CD2       -7.3780    9.2670   15.4960 C.3    67  LEU67       0.0001
     71  N         -5.1530    6.7680   11.8720 N.am   68  MET68      -0.1977
     72  CA        -4.9970    5.8050   10.7990 C.3    68  MET68       0.1605
     73  C         -6.2710    5.7390    9.9680 C.2    68  MET68       0.2287
     74  O         -6.1940    5.6330    8.7360 O.2    68  MET68      -0.2864
     75  CB        -4.5870    4.4270   11.3260 C.3    68  MET68       0.0413
     76  CG        -3.2370    4.4070   12.0070 C.3    68  MET68       0.0598
     77  SD        -3.1830    5.0720   13.7070 S.3    68  MET68      -0.1393
     78  CE        -3.7480    3.6340   14.6300 C.3    68  MET68       0.0692
     79  N         -8.3680    8.0850    9.1900 N.3    70  ASN70      -0.1240
     80  CA        -8.3300    9.1980    8.2680 C.3    70  ASN70       0.1653
     81  C         -7.3200    8.9800    7.1540 C.2    70  ASN70       0.2266
     82  O         -7.5860    9.3040    6.0020 O.2    70  ASN70      -0.2867
     83  CB        -7.9270   10.4820    8.9910 C.3    70  ASN70       0.1155
     84  CG        -8.9040   11.0300    9.9800 C.2    70  ASN70       0.2627
     85  OD1      -10.0930   10.7560    9.9260 O.2    70  ASN70      -0.2716
     86  ND2       -8.3880   11.8660   10.8690 N.am   70  ASN70      -0.0877
     87  N         -3.9880    1.4280   17.7650 N.3   138  ALA138     -0.1245
     88  CA        -3.7880    2.5420   18.6640 C.3   138  ALA138      0.1562
     89  C         -3.5560    2.0510   20.0740 C.2   138  ALA138      0.2260
     90  O         -4.1180    1.0570   20.5250 O.2   138  ALA138     -0.2867
     91  CB        -4.9840    3.4880   18.6390 C.3   138  ALA138      0.0290
     92  N          0.1520    5.4750   25.0010 N.3   141  ALA141     -0.1245
     93  CA         1.6150    5.3920   25.0330 C.3   141  ALA141      0.1562
     94  C          2.2390    5.8760   26.3270 C.2   141  ALA141      0.2260
     95  O          3.4680    5.9160   26.4170 O.2   141  ALA141     -0.2867
     96  CB         2.2030    6.1150   23.8530 C.3   141  ALA141      0.0290
     97  N         -6.1880    6.4320   27.7860 N.3   159  GLN159     -0.1231
     98  CA        -6.5930    7.2270   26.6470 C.3   159  GLN159      0.1698
     99  C         -5.6750    6.9310   25.4630 C.2   159  GLN159      0.2592
    100  O         -4.4560    6.9790   25.5950 O.2   159  GLN159     -0.2718
    101  CB        -6.4920    8.7220   26.9980 C.3   159  GLN159      0.0381
    102  CG        -6.6520    9.6850   25.9210 C.3   159  GLN159      0.0905
    103  CD        -7.9510    9.6460   25.2420 C.2   159  GLN159      0.2608
    104  OE1       -9.0160    9.6790   25.8790 O.2   159  GLN159     -0.2717
    105  NE2       -7.9050    9.6690   23.9110 N.am  159  GLN159     -0.0878
    106  N         -6.2570    6.6020   24.3310 N.am  160  LEU160     -0.1966
    107  CA        -5.5050    6.3600   23.0980 C.3   160  LEU160      0.1728
    108  C         -4.8090    7.6360   22.6540 C.2   160  LEU160      0.2616
    109  O         -5.4470    8.6830   22.5580 O.2   160  LEU160     -0.2715
    110  CB        -6.4420    5.8640   21.9940 C.3   160  LEU160      0.0311
    111  CG        -7.1590    4.5580   22.2200 C.3   160  LEU160      0.0022
    112  CD1       -8.1330    4.3290   21.0970 C.3   160  LEU160      0.0001
    113  CD2       -6.2010    3.3960   22.3900 C.3   160  LEU160      0.0001
    114  N         -3.5240    7.5610   22.3530 N.am  161  ASP161     -0.1957
    115  CA        -2.7830    8.7320   21.9260 C.3   161  ASP161      0.1840
    116  C         -1.6260    8.4370   20.9910 C.2   161  ASP161      0.2622
    117  O         -0.8460    9.3350   20.6860 O.2   161  ASP161     -0.2715
    118  CB        -2.3160    9.5650   23.1470 C.3   161  ASP161      0.1450
    119  CG        -1.2870    8.8560   23.9930 C.2   161  ASP161      0.3671
    120  OD1       -0.8730    9.4950   25.0210 O.co2 161  ASP161     -0.2456
    121  OD2       -0.8840    7.7460   23.6710 O.co2 161  ASP161     -0.2456
    122  N         -1.5360    7.2080   20.4770 N.am  162  HIS162     -0.1973
    123  CA        -0.3690    6.7820   19.6960 C.3   162  HIS162      0.1656
    124  C         -0.8030    5.6860   18.7540 C.2   162  HIS162      0.2291
    125  O         -1.6700    4.8690   19.0930 O.2   162  HIS162     -0.2864
    126  CB         0.7130    6.2900   20.6840 C.3   162  HIS162      0.0771
    127  CG         2.0040    5.8940   20.0740 C.ar  162  HIS162      0.0820
    128  ND1        2.4430    6.4070   18.8850 N.ar  162  HIS162     -0.2267
    129  CD2        2.9690    5.0340   20.5150 C.ar  162  HIS162      0.1154
    130  CE1        3.6480    5.9420   18.6590 C.ar  162  HIS162      0.1986
    131  NE2        3.9940    5.1090   19.6110 N.ar  162  HIS162     -0.2212
    132  N         10.0900    4.9390   17.0310 N.3   184  TRP184     -0.1241
    133  CA        10.9730    5.7790   17.8470 C.3   184  TRP184      0.1605
    134  C         12.4300    5.3620   17.6590 C.2   184  TRP184      0.2264
    135  O         13.2440    5.5790   18.5650 O.2   184  TRP184     -0.2867
    136  CB        10.5590    5.7900   19.3130 C.3   184  TRP184      0.0550
    137  CG         9.2110    6.3600   19.5950 C.ar  184  TRP184      0.0003
    138  CD1        8.3370    6.9610   18.7490 C.ar  184  TRP184      0.0946
    139  CD2        8.5520    6.3120   20.8530 C.ar  184  TRP184      0.0152
    140  NE1        7.1670    7.2760   19.3880 N.ar  184  TRP184     -0.2442
    141  CE2        7.2730    6.8590   20.6870 C.ar  184  TRP184      0.0810
    142  CE3        8.9160    5.8000   22.1140 C.ar  184  TRP184      0.0012
    143  CZ2        6.3520    6.9100   21.7240 C.ar  184  TRP184      0.0191
    144  CZ3        8.0200    5.8550   23.1230 C.ar  184  TRP184      0.0001
    145  CH2        6.7560    6.4020   22.9340 C.ar  184  TRP184      0.0015
    146  N         -8.7800    0.1760   18.6530 N.3   208  ALA208     -0.1245
    147  CA        -8.8290    0.8260   17.3380 C.3   208  ALA208      0.1562
    148  C         -7.8540    0.1150   16.4110 C.2   208  ALA208      0.2260
    149  O         -6.8380    0.6600   15.9810 O.2   208  ALA208     -0.2867
    150  CB        -8.5630    2.3370   17.4310 C.3   208  ALA208      0.0290
@<TRIPOS>BOND
     1    82    81    2
     2    81    80    1
     3    80    83    1
     4    80    79    1
     5    33    32   ar
     6    33    31   ar
     7    32    30   ar
     8    74    73    2
     9    83    84    1
    10    31    29   ar
    11    30    27   ar
    12    85    84    2
    13    73    72    1
    14    84    86   am
    15    34    35    1
    16    66    65    2
    17    36    35    1
    18    36    37    2
    19    72    75    1
    20    72    71    1
    21    35    38    1
    22    29    27   ar
    23    29    28   ar
    24    23    22    2
    25    27    25   ar
    26    75    76    1
    27    22    21    1
    28    41    43   ar
    29    41    39   ar
    30    45    46    1
    31    65    71   am
    32    65    64    1
    33    43    44   ar
    34    50    49    1
    35    76    77    1
    36    28    26   ar
    37    38    39    1
    38    39    40   ar
    39    25    24    1
    40    25    26   ar
    41    44    42   ar
    42    63    64    1
    43    63    61   am
    44    58    57    2
    45    64    67    1
    46    46    49    1
    47    46    47    1
    48    21    24    1
    49    21    20    1
    50    67    68    1
    51    60    61    1
    52    60    59    1
    53    40    42   ar
    54     4     3    2
    55    17    16    2
    56     2     1    1
    57     2     3    1
    58     2     5    1
    59    61    62    2
    60    20    16   am
    61    77    78    1
    62    57    59   am
    63    57    56    1
    64    16    15    1
    65    51    47   am
    66    51    52    1
    67    69    68    1
    68     5     6    1
    69    47    48    2
    70    68    70    1
    71    14    15    1
    72    55    56    1
    73    55    53   am
    74    15    18    1
    75    13    12    2
    76    12    11    1
    77    52    53    1
    78    53    54    2
    79    10    11    1
    80     6     7    1
    81   149   148    2
    82    18    19    1
    83     8     7    2
    84     7     9   am
    85   148   147    1
    86   132   133    1
    87   147   150    1
    88   147   146    1
    89   134   133    1
    90   134   135    2
    91    87    88    1
    92   133   136    1
    93    91    88    1
    94   130   128   ar
    95   130   131   ar
    96    88    89    1
    97   138   140   ar
    98   138   137   ar
    99   124   125    2
   100   124   123    1
   101   128   127   ar
   102   136   137    1
   103   140   141   ar
   104   137   139   ar
   105   131   129   ar
   106   123   122    1
   107   123   126    1
   108    89    90    2
   109   127   129   ar
   110   127   126    1
   111   122   116   am
   112   117   116    2
   113   141   139   ar
   114   141   143   ar
   115   139   142   ar
   116   116   115    1
   117   112   111    1
   118   143   145   ar
   119   115   114    1
   120   115   118    1
   121   110   111    1
   122   110   107    1
   123   142   144   ar
   124   111   113    1
   125   114   108   am
   126   109   108    2
   127   108   107    1
   128   145   144   ar
   129   107   106    1
   130   118   119    1
   131   121   119   ar
   132    96    93    1
   133   105   103   am
   134   119   120   ar
   135   106    99   am
   136    92    93    1
   137    93    94    1
   138   103   104    2
   139   103   102    1
   140    99   100    2
   141    99    98    1
   142   102   101    1
   143    94    95    2
   144    98   101    1
   145    98    97    1
