@<TRIPOS>MOLECULE
tmp/2p8bA00.pdb
 209 192 0 0 0
SMALL
GASTEIGER

@<TRIPOS>ATOM
      1  N         -2.8010   38.4720  -24.9910 N.3    19  PHE19      -0.1241
      2  CA        -3.1200   37.0760  -25.2660 C.3    19  PHE19       0.1605
      3  C         -1.7910   36.4160  -25.6080 C.2    19  PHE19       0.2264
      4  O         -1.1440   36.7870  -26.5860 O.2    19  PHE19      -0.2867
      5  CB        -4.0950   36.9820  -26.4440 C.3    19  PHE19       0.0534
      6  CG        -4.6640   35.6070  -26.6550 C.ar   19  PHE19      -0.0203
      7  CD1       -5.4070   34.9830  -25.6540 C.ar   19  PHE19      -0.0042
      8  CD2       -4.4670   34.9370  -27.8580 C.ar   19  PHE19      -0.0042
      9  CE1       -5.9470   33.7110  -25.8470 C.ar   19  PHE19      -0.0003
     10  CE2       -5.0060   33.6620  -28.0600 C.ar   19  PHE19      -0.0003
     11  CZ        -5.7450   33.0510  -27.0540 C.ar   19  PHE19      -0.0000
     12  N          0.4160   32.9100  -26.4420 N.3    21  ILE21      -0.1245
     13  CA         0.4180   31.5110  -26.8320 C.3    21  ILE21       0.1561
     14  C          1.8420   31.0960  -27.1800 C.2    21  ILE21       0.2260
     15  O          2.7690   31.9040  -27.1180 O.2    21  ILE21      -0.2867
     16  CB        -0.5190   31.2560  -28.0280 C.3    21  ILE21       0.0252
     17  CG1       -0.0020   31.9860  -29.2680 C.3    21  ILE21       0.0019
     18  CG2       -1.9300   31.7270  -27.6880 C.3    21  ILE21       0.0019
     19  CD1       -0.8960   31.8210  -30.4680 C.3    21  ILE21       0.0001
     20  N          3.5150   30.5410  -29.9650 N.3    23  TYR23      -0.1241
     21  CA         4.2520   31.2560  -31.0050 C.3    23  TYR23       0.1605
     22  C          4.2580   32.7830  -30.9500 C.2    23  TYR23       0.2264
     23  O          4.8720   33.4360  -31.7990 O.2    23  TYR23      -0.2867
     24  CB         3.8080   30.7720  -32.4100 C.3    23  TYR23       0.0534
     25  CG         2.3430   30.9450  -32.7970 C.ar   23  TYR23      -0.0201
     26  CD1        1.7790   32.2080  -32.9560 C.ar   23  TYR23      -0.0009
     27  CD2        1.5330   29.8320  -33.0560 C.ar   23  TYR23      -0.0009
     28  CE1        0.4450   32.3610  -33.3650 C.ar   23  TYR23       0.0417
     29  CE2        0.2020   29.9740  -33.4650 C.ar   23  TYR23       0.0417
     30  CZ        -0.3380   31.2420  -33.6140 C.ar   23  TYR23       0.1957
     31  OH        -1.6660   31.3920  -33.9770 O.3    23  TYR23      -0.2866
     32  N          0.1730   38.8000  -28.0030 N.3    26  TYR26      -0.1241
     33  CA        -0.5800   39.8690  -28.6410 C.3    26  TYR26       0.1605
     34  C         -1.0570   40.8850  -27.6140 C.2    26  TYR26       0.2264
     35  O         -1.7510   40.5300  -26.6610 O.2    26  TYR26      -0.2867
     36  CB        -1.7800   39.2750  -29.3710 C.3    26  TYR26       0.0534
     37  CG        -1.4060   38.1870  -30.3500 C.ar   26  TYR26      -0.0201
     38  CD1       -1.3150   38.4500  -31.7170 C.ar   26  TYR26      -0.0009
     39  CD2       -1.1260   36.8950  -29.9070 C.ar   26  TYR26      -0.0009
     40  CE1       -0.9570   37.4510  -32.6180 C.ar   26  TYR26       0.0417
     41  CE2       -0.7630   35.8910  -30.7970 C.ar   26  TYR26       0.0417
     42  CZ        -0.6830   36.1740  -32.1490 C.ar   26  TYR26       0.1957
     43  OH        -0.3450   35.1760  -33.0300 O.3    26  TYR26      -0.2866
     44  N         -5.4880   43.2520  -31.0080 N.3    29  MET29      -0.1245
     45  CA        -5.7430   42.4820  -32.2190 C.3    29  MET29       0.1570
     46  C         -6.0970   43.2990  -33.4510 C.2    29  MET29       0.2261
     47  O         -7.2240   43.7730  -33.5970 O.2    29  MET29      -0.2867
     48  CB        -6.8430   41.4440  -31.9670 C.3    29  MET29       0.0387
     49  CG        -6.3510   40.1160  -31.3750 C.3    29  MET29       0.0595
     50  SD        -5.1820   39.1910  -32.4460 S.3    29  MET29      -0.1393
     51  CE        -5.7800   39.5630  -33.9860 C.3    29  MET29       0.0692
     52  N         -6.1260   38.6410  -39.5540 N.3    50  ALA50      -0.1231
     53  CA        -4.9990   37.8570  -40.0240 C.3    50  ALA50       0.1694
     54  C         -4.0420   37.4320  -38.9230 C.2    50  ALA50       0.2592
     55  O         -3.7300   38.2050  -38.0170 O.2    50  ALA50      -0.2718
     56  CB        -4.2450   38.6460  -41.0890 C.3    50  ALA50       0.0304
     57  N         -3.5920   36.1840  -38.9980 N.am   51  ASP51      -0.1974
     58  CA        -2.6160   35.6760  -38.0500 C.3    51  ASP51       0.1709
     59  C         -1.4170   35.2720  -38.9000 C.2    51  ASP51       0.2293
     60  O         -1.4350   34.2300  -39.5540 O.2    51  ASP51      -0.2864
     61  CB        -3.1390   34.4570  -37.2920 C.3    51  ASP51       0.1436
     62  CG        -2.2030   34.0300  -36.1820 C.2    51  ASP51       0.3671
     63  OD1       -0.9730   34.0200  -36.4080 O.co2  51  ASP51      -0.2456
     64  OD2       -2.6920   33.6990  -35.0810 O.co2  51  ASP51      -0.2456
     65  N        -16.0380   28.1830  -23.7950 N.3   134  THR134     -0.1218
     66  CA       -14.7860   27.7630  -23.1850 C.3   134  THR134      0.1862
     67  C        -13.8290   28.9320  -23.0090 C.2   134  THR134      0.2287
     68  O        -13.5260   29.6580  -23.9590 O.2   134  THR134     -0.2866
     69  CB       -14.1120   26.6560  -24.0440 C.3   134  THR134      0.1770
     70  OG1      -14.9590   25.4970  -24.0790 O.3   134  THR134     -0.2211
     71  CG2      -12.7560   26.2710  -23.4740 C.3   134  THR134      0.0375
     72  N        -10.3530   30.6480  -22.6560 N.3   136  VAL136     -0.1245
     73  CA        -8.9840   30.3590  -23.0650 C.3   136  VAL136      0.1561
     74  C         -7.9930   31.0010  -22.1080 C.2   136  VAL136      0.2260
     75  O         -8.0080   32.2140  -21.9150 O.2   136  VAL136     -0.2867
     76  CB        -8.7110   30.8680  -24.4970 C.3   136  VAL136      0.0252
     77  CG1       -7.3030   30.4790  -24.9320 C.3   136  VAL136      0.0019
     78  CG2       -9.7420   30.2900  -25.4500 C.3   136  VAL136      0.0019
     79  N         -9.6150   26.1230  -21.9090 N.3   161  LYS161     -0.1245
     80  CA        -8.6520   25.7360  -22.9350 C.3   161  LYS161      0.1561
     81  C         -7.3190   26.2820  -22.4510 C.2   161  LYS161      0.2260
     82  O         -7.1330   27.4970  -22.3760 O.2   161  LYS161     -0.2867
     83  CB        -9.0130   26.3420  -24.2950 C.3   161  LYS161      0.0271
     84  CG        -7.9090   26.2250  -25.3480 C.3   161  LYS161      0.0035
     85  CD        -8.4700   26.4660  -26.7490 C.3   161  LYS161      0.0206
     86  CE        -7.3810   26.7590  -27.7740 C.3   161  LYS161      0.1093
     87  NZ        -7.9330   26.6760  -29.1590 N.3   161  LYS161     -0.1314
     88  N         -3.4520   27.1130  -22.7870 N.3   163  LYS163     -0.1245
     89  CA        -2.4110   27.3790  -23.7700 C.3   163  LYS163      0.1561
     90  C         -1.0880   26.9210  -23.1650 C.2   163  LYS163      0.2260
     91  O         -0.7260   27.3400  -22.0650 O.2   163  LYS163     -0.2867
     92  CB        -2.3360   28.8760  -24.0870 C.3   163  LYS163      0.0271
     93  CG        -3.4720   29.3940  -24.9430 C.3   163  LYS163      0.0035
     94  CD        -3.4200   28.7780  -26.3400 C.3   163  LYS163      0.0206
     95  CE        -4.5330   29.3330  -27.2050 C.3   163  LYS163      0.1093
     96  NZ        -4.4240   28.8770  -28.6240 N.3   163  LYS163     -0.1314
     97  N         -4.0580   23.2080  -25.7360 N.3   191  ASP191     -0.1239
     98  CA        -3.6260   23.6770  -27.0560 C.3   191  ASP191      0.1674
     99  C         -2.1440   24.0260  -26.9940 C.2   191  ASP191      0.2266
    100  O         -1.7510   24.9700  -26.3120 O.2   191  ASP191     -0.2867
    101  CB        -4.4230   24.9160  -27.4630 C.3   191  ASP191      0.1410
    102  CG        -4.1470   25.3410  -28.8910 C.2   191  ASP191      0.3668
    103  OD1       -3.2000   24.8010  -29.5070 O.co2 191  ASP191     -0.2456
    104  OD2       -4.8780   26.2180  -29.3950 O.co2 191  ASP191     -0.2456
    105  N         -0.2640   24.7940  -29.7160 N.3   193  ASN193     -0.1240
    106  CA         0.0850   25.7040  -30.8010 C.3   193  ASN193      0.1653
    107  C          1.4440   25.3630  -31.4140 C.2   193  ASN193      0.2266
    108  O          2.3030   26.2360  -31.5870 O.2   193  ASN193     -0.2867
    109  CB         0.0620   27.1640  -30.3270 C.3   193  ASN193      0.1155
    110  CG        -1.3370   27.7510  -30.3310 C.2   193  ASN193      0.2627
    111  OD1       -1.9730   27.8760  -31.3860 O.2   193  ASN193     -0.2716
    112  ND2       -1.8260   28.1150  -29.1550 N.am  193  ASN193     -0.0877
    113  N         -4.6220   19.6870  -28.7330 N.3   218  GLU218     -0.1245
    114  CA        -4.6850   20.4270  -29.9850 C.3   218  GLU218      0.1567
    115  C         -3.3310   20.8520  -30.5480 C.2   218  GLU218      0.2260
    116  O         -2.5290   21.4610  -29.8500 O.2   218  GLU218     -0.2867
    117  CB        -5.5630   21.6660  -29.7730 C.3   218  GLU218      0.0388
    118  CG        -5.7180   22.5920  -30.9690 C.3   218  GLU218      0.1160
    119  CD        -6.6870   23.7270  -30.6800 C.2   218  GLU218      0.3649
    120  OE1       -7.0820   23.8780  -29.5050 O.co2 218  GLU218     -0.2457
    121  OE2       -7.0530   24.4670  -31.6140 O.co2 218  GLU218     -0.2457
    122  N         -5.2230   22.1070  -35.8100 N.3   243  ASP243     -0.1225
    123  CA        -5.6290   23.4910  -36.0280 C.3   243  ASP243      0.1805
    124  C         -4.7890   24.1120  -37.1430 C.2   243  ASP243      0.2597
    125  O         -5.1880   24.0820  -38.3040 O.2   243  ASP243     -0.2718
    126  CB        -5.4800   24.3280  -34.7490 C.3   243  ASP243      0.1424
    127  CG        -5.9620   25.7640  -34.9360 C.2   243  ASP243      0.3668
    128  OD1       -6.2420   26.1560  -36.0840 O.co2 243  ASP243     -0.2456
    129  OD2       -6.0590   26.5100  -33.9430 O.co2 243  ASP243     -0.2456
    130  N         -3.6190   24.6510  -36.8020 N.am  244  GLU244     -0.1979
    131  CA        -2.7780   25.2900  -37.8150 C.3   244  GLU244      0.1602
    132  C         -2.4890   24.3750  -38.9980 C.2   244  GLU244      0.2287
    133  O         -2.2860   24.8510  -40.1160 O.2   244  GLU244     -0.2864
    134  CB        -1.4570   25.7900  -37.2130 C.3   244  GLU244      0.0415
    135  CG        -1.6280   26.9260  -36.1950 C.3   244  GLU244      0.1163
    136  CD        -1.5830   26.4230  -34.7660 C.2   244  GLU244      0.3649
    137  OE1       -2.3190   25.4600  -34.4510 O.co2 244  GLU244     -0.2457
    138  OE2       -0.8110   26.9880  -33.9610 O.co2 244  GLU244     -0.2457
    139  N        -10.1260   21.9640  -36.1270 N.3   265  ASN265     -0.1240
    140  CA       -10.5480   23.3110  -35.7700 C.3   265  ASN265      0.1653
    141  C        -10.7160   24.0630  -37.0850 C.2   265  ASN265      0.2266
    142  O         -9.7290   24.4790  -37.7000 O.2   265  ASN265     -0.2867
    143  CB        -9.4740   23.9860  -34.9090 C.3   265  ASN265      0.1155
    144  CG        -9.9850   25.2250  -34.1960 C.2   265  ASN265      0.2627
    145  OD1      -10.9320   25.8690  -34.6460 O.2   265  ASN265     -0.2716
    146  ND2       -9.3500   25.5670  -33.0830 N.am  265  ASN265     -0.0877
    147  N        -11.7700   27.2700  -39.2010 N.3   267  LYS267     -0.1245
    148  CA       -11.8420   28.7040  -38.9400 C.3   267  LYS267      0.1561
    149  C        -12.0640   29.4700  -40.2220 C.2   267  LYS267      0.2260
    150  O        -11.4040   29.2230  -41.2270 O.2   267  LYS267     -0.2867
    151  CB       -10.5590   29.2070  -38.2790 C.3   267  LYS267      0.0271
    152  CG       -10.2390   28.5230  -36.9660 C.3   267  LYS267      0.0035
    153  CD        -9.0200   29.1380  -36.3260 C.3   267  LYS267      0.0206
    154  CE        -8.6090   28.3570  -35.0980 C.3   267  LYS267      0.1093
    155  NZ        -7.4840   29.0260  -34.4000 N.3   267  LYS267     -0.1314
    156  N        -13.4020   27.5110  -34.5300 N.3   294  GLY294     -0.1210
    157  CA       -12.6070   28.3440  -33.6510 C.3   294  GLY294      0.1956
    158  C        -12.4760   29.7300  -34.2500 C.2   294  GLY294      0.2613
    159  O        -13.2730   30.1200  -35.0950 O.2   294  GLY294     -0.2717
    160  N        -11.4650   30.4720  -33.8260 N.am  295  SER295     -0.1938
    161  CA       -11.2680   31.8150  -34.3470 C.3   295  SER295      0.2055
    162  C         -9.8580   32.2850  -34.0370 C.2   295  SER295      0.2643
    163  O         -9.0860   31.5830  -33.3800 O.2   295  SER295     -0.2714
    164  CB       -12.2920   32.7850  -33.7300 C.3   295  SER295      0.2130
    165  OG       -11.8060   33.3620  -32.5290 O.3   295  SER295     -0.2179
    166  N         -9.5220   33.4730  -34.5270 N.am  296  MET296     -0.1962
    167  CA        -8.2040   34.0500  -34.3080 C.3   296  MET296      0.1736
    168  C         -8.2890   35.1290  -33.2340 C.2   296  MET296      0.2616
    169  O         -7.3140   35.8410  -32.9900 O.2   296  MET296     -0.2715
    170  CB        -7.6880   34.6700  -35.6110 C.3   296  MET296      0.0427
    171  CG        -7.5750   33.6890  -36.7660 C.3   296  MET296      0.0599
    172  SD        -6.3880   32.3860  -36.4020 S.3   296  MET296     -0.1393
    173  CE        -6.2180   31.6330  -38.0560 C.3   296  MET296      0.0692
    174  N         -9.4530   35.2020  -32.5830 N.am  297  VAL297     -0.1977
    175  CA        -9.7830   36.2020  -31.5580 C.3   297  VAL297      0.1596
    176  C        -10.2280   37.3750  -32.4190 C.2   297  VAL297      0.2287
    177  O         -9.4230   38.2180  -32.8190 O.2   297  VAL297     -0.2864
    178  CB        -8.5750   36.6010  -30.6820 C.3   297  VAL297      0.0276
    179  CG1       -9.0090   37.6450  -29.6600 C.3   297  VAL297      0.0022
    180  CG2       -8.0270   35.3800  -29.9580 C.3   297  VAL297      0.0022
    181  N        -15.2430   28.0470  -30.4620 N.3   320  GLU320     -0.1245
    182  CA       -14.2250   28.8210  -29.7710 C.3   320  GLU320      0.1567
    183  C        -14.0700   30.1850  -30.4130 C.2   320  GLU320      0.2260
    184  O        -13.1220   30.4280  -31.1530 O.2   320  GLU320     -0.2867
    185  CB       -12.8770   28.1030  -29.7850 C.3   320  GLU320      0.0388
    186  CG       -12.8040   26.8810  -28.8930 C.3   320  GLU320      0.1160
    187  CD       -11.4010   26.3340  -28.8090 C.2   320  GLU320      0.3649
    188  OE1      -10.5190   26.8900  -29.4970 O.co2 320  GLU320     -0.2457
    189  OE2      -11.1760   25.3600  -28.0580 O.co2 320  GLU320     -0.2457
    190  N        -14.3010   33.8240  -28.7820 N.3   322  THR322     -0.1203
    191  CA       -14.5060   34.6310  -27.5840 C.3   322  THR322      0.1994
    192  C        -13.8510   36.0120  -27.6300 C.2   322  THR322      0.2618
    193  O        -13.6440   36.6440  -26.5920 O.2   322  THR322     -0.2717
    194  CB       -14.0040   33.8760  -26.3260 C.3   322  THR322      0.1784
    195  OG1      -12.6140   33.5550  -26.4670 O.3   322  THR322     -0.2211
    196  CG2      -14.7820   32.5820  -26.1400 C.3   322  THR322      0.0376
    197  N        -13.5340   36.4810  -28.8340 N.am  323  GLY323     -0.1956
    198  CA       -12.9180   37.7880  -28.9730 C.3   323  GLY323      0.1869
    199  C        -13.6960   38.8730  -28.2420 C.2   323  GLY323      0.2309
    200  O        -13.1150   39.6510  -27.4840 O.2   323  GLY323     -0.2863
    201  N        -12.9210   39.1690  -24.7950 N.3   326  LYS326     -0.1245
    202  CA       -11.5370   39.5250  -24.5070 C.3   326  LYS326      0.1561
    203  C        -11.2200   40.9980  -24.7580 C.2   326  LYS326      0.2260
    204  O        -10.3090   41.5520  -24.1450 O.2   326  LYS326     -0.2867
    205  CB       -10.5870   38.6590  -25.3480 C.3   326  LYS326      0.0271
    206  CG       -10.5010   37.1910  -24.9290 C.3   326  LYS326      0.0035
    207  CD        -9.7960   37.0470  -23.5860 C.3   326  LYS326      0.0206
    208  CE        -9.5900   35.5840  -23.1860 C.3   326  LYS326      0.1093
    209  NZ        -8.6420   34.8690  -24.0850 N.3   326  LYS326     -0.1314
@<TRIPOS>BOND
     1   150   149    2
     2    56    53    1
     3   149   148    1
     4   133   132    2
     5    53    52    1
     6    53    54    1
     7    60    59    2
     8   147   148    1
     9    57    54   am
    10    57    58    1
    11   132   131    1
    12   148   151    1
    13    54    55    2
    14    59    58    1
    15   125   124    2
    16   151   152    1
    17   173   172    1
    18    58    61    1
    19   131   134    1
    20   131   130    1
    21   142   141    2
    22    61    62    1
    23   134   135    1
    24   124   130   am
    25   124   123    1
    26   141   140    1
    27   152   153    1
    28   171   172    1
    29   171   170    1
    30    63    62   ar
    31   153   154    1
    32   135   136    1
    33    62    64   ar
    34   139   140    1
    35   128   127   ar
    36   123   122    1
    37   123   126    1
    38   140   143    1
    39   170   167    1
    40   154   155    1
    41   159   158    2
    42   127   126    1
    43   127   129   ar
    44   143   144    1
    45   136   137   ar
    46   136   138   ar
    47   145   144    2
    48   156   157    1
    49   166   167    1
    50   166   162   am
    51   161   162    1
    52   161   160    1
    53   161   164    1
    54   167   168    1
    55   158   160   am
    56   158   157    1
    57   144   146   am
    58   162   163    2
    59    51    50    1
    60    31    30    1
    61   164   165    1
    62    30    29   ar
    63    30    28   ar
    64    47    46    2
    65    29    27   ar
    66    46    45    1
    67    28    26   ar
    68   168   169    2
    69   168   174   am
    70    27    25   ar
    71    43    42    1
    72    26    25   ar
    73   177   176    2
    74    25    24    1
    75    40    42   ar
    76    40    38   ar
    77   174   175    1
    78    50    49    1
    79   176   175    1
    80    24    21    1
    81    45    48    1
    82    45    44    1
    83    42    41   ar
    84    48    49    1
    85    23    22    2
    86    38    37   ar
    87   121   119   ar
    88   108   107    2
    89   175   178    1
    90   107   106    1
    91   111   110    2
    92   184   183    2
    93    21    22    1
    94    21    20    1
    95   118   119    1
    96   118   117    1
    97   106   109    1
    98   106   105    1
    99    41    39   ar
   100   178   180    1
   101   178   179    1
   102   119   120   ar
   103   115   114    1
   104   115   116    2
   105    19    17    1
   106   181   182    1
   107   183   182    1
   108    37    39   ar
   109    37    36    1
   110   110   109    1
   111   110   112   am
   112   114   117    1
   113   114   113    1
   114   185   182    1
   115   185   186    1
   116   103   102   ar
   117   188   187   ar
   118   104   102   ar
   119    36    33    1
   120    17    16    1
   121    87    86    1
   122   198   197    1
   123   198   199    1
   124   186   187    1
   125   102   101    1
   126   197   192   am
   127   187   189   ar
   128   190   191    1
   129    33    32    1
   130    33    34    1
   131    96    95    1
   132   199   200    2
   133    10     8   ar
   134    10    11   ar
   135    16    18    1
   136    16    13    1
   137     8     6   ar
   138    86    85    1
   139   192   191    1
   140   192   193    2
   141    34    35    2
   142   191   194    1
   143   101    98    1
   144    95    94    1
   145    14    15    2
   146    14    13    1
   147    98    99    1
   148    98    97    1
   149    11     9   ar
   150    99   100    2
   151    13    12    1
   152    85    84    1
   153     6     5    1
   154     6     7   ar
   155     4     3    2
   156   195   194    1
   157     5     2    1
   158    94    93    1
   159   194   196    1
   160     9     7   ar
   161     3     2    1
   162    78    76    1
   163    84    83    1
   164   205   206    1
   165   205   202    1
   166     2     1    1
   167    93    92    1
   168    77    76    1
   169   206   207    1
   170   201   202    1
   171   203   202    1
   172   203   204    2
   173    76    73    1
   174    83    80    1
   175    92    89    1
   176   209   208    1
   177    70    69    1
   178    69    71    1
   179    69    66    1
   180    68    67    2
   181    65    66    1
   182    89    90    1
   183    89    88    1
   184   207   208    1
   185    66    67    1
   186    90    91    2
   187    73    72    1
   188    73    74    1
   189    80    81    1
   190    80    79    1
   191    81    82    2
   192    74    75    2
