@<TRIPOS>MOLECULE
tmp/2p8cA00.pdb
 219 203 0 0 0
SMALL
GASTEIGER

@<TRIPOS>ATOM
      1  N         -2.9350   38.4080   23.9620 N.3    19  PHE19      -0.1241
      2  CA        -3.2720   37.0540   23.5360 C.3    19  PHE19       0.1605
      3  C         -1.9260   36.4230   23.2200 C.2    19  PHE19       0.2264
      4  O         -1.1830   36.9260   22.3760 O.2    19  PHE19      -0.2867
      5  CB        -4.1570   37.0850   22.2860 C.3    19  PHE19       0.0534
      6  CG        -4.7040   35.7390   21.8940 C.ar   19  PHE19      -0.0203
      7  CD1       -5.5040   35.0140   22.7750 C.ar   19  PHE19      -0.0042
      8  CD2       -4.4250   35.1950   20.6390 C.ar   19  PHE19      -0.0042
      9  CE1       -6.0200   33.7630   22.4100 C.ar   19  PHE19      -0.0003
     10  CE2       -4.9350   33.9460   20.2650 C.ar   19  PHE19      -0.0003
     11  CZ        -5.7330   33.2310   21.1510 C.ar   19  PHE19      -0.0000
     12  N          0.1610   32.9080   22.1320 N.3    21  ILE21      -0.1245
     13  CA         0.1890   31.5410   21.6310 C.3    21  ILE21       0.1561
     14  C          1.6290   31.1600   21.2700 C.2    21  ILE21       0.2260
     15  O          2.5220   32.0080   21.2600 O.2    21  ILE21      -0.2867
     16  CB        -0.7350   31.3630   20.4070 C.3    21  ILE21       0.0252
     17  CG1       -0.3160   32.3070   19.2770 C.3    21  ILE21       0.0019
     18  CG2       -2.1800   31.6190   20.8180 C.3    21  ILE21       0.0019
     19  CD1       -1.1770   32.1770   18.0220 C.3    21  ILE21       0.0001
     20  N          3.4930   30.6690   18.6200 N.3    23  TYR23      -0.1241
     21  CA         4.2960   31.4010   17.6440 C.3    23  TYR23       0.1605
     22  C          4.1330   32.9180   17.6200 C.2    23  TYR23       0.2264
     23  O          4.6220   33.5790   16.7000 O.2    23  TYR23      -0.2867
     24  CB         4.0500   30.8320   16.2360 C.3    23  TYR23       0.0534
     25  CG         2.6080   30.8650   15.7700 C.ar   23  TYR23      -0.0201
     26  CD1        1.9860   32.0690   15.4380 C.ar   23  TYR23      -0.0009
     27  CD2        1.8650   29.6870   15.6540 C.ar   23  TYR23      -0.0009
     28  CE1        0.6610   32.1030   15.0000 C.ar   23  TYR23       0.0417
     29  CE2        0.5360   29.7090   15.2190 C.ar   23  TYR23       0.0417
     30  CZ        -0.0560   30.9230   14.8930 C.ar   23  TYR23       0.1957
     31  OH        -1.3580   30.9560   14.4510 O.3    23  TYR23      -0.2866
     32  N         -0.0730   38.9250   20.9140 N.3    26  TYR26      -0.1241
     33  CA        -0.8630   40.0180   20.3520 C.3    26  TYR26       0.1605
     34  C         -1.4550   40.9630   21.3930 C.2    26  TYR26       0.2264
     35  O         -2.0190   40.5280   22.4000 O.2    26  TYR26      -0.2867
     36  CB        -1.9910   39.4410   19.4940 C.3    26  TYR26       0.0534
     37  CG        -1.5090   38.4460   18.4650 C.ar   26  TYR26      -0.0201
     38  CD1       -1.2010   38.8470   17.1650 C.ar   26  TYR26      -0.0009
     39  CD2       -1.3290   37.1030   18.8020 C.ar   26  TYR26      -0.0009
     40  CE1       -0.7240   37.9300   16.2240 C.ar   26  TYR26       0.0417
     41  CE2       -0.8530   36.1830   17.8730 C.ar   26  TYR26       0.0417
     42  CZ        -0.5540   36.6030   16.5890 C.ar   26  TYR26       0.1957
     43  OH        -0.0920   35.6910   15.6720 O.3    26  TYR26      -0.2866
     44  N         -5.6690   43.2310   17.4130 N.3    29  MET29      -0.1231
     45  CA        -5.7800   42.4150   16.2170 C.3    29  MET29       0.1687
     46  C         -6.0970   43.2560   14.9870 C.2    29  MET29       0.2434
     47  O         -7.1920   43.8060   14.8630 O.2    29  MET29      -0.2733
     48  CB        -6.8540   41.3350   16.4140 C.3    29  MET29       0.0400
     49  CG        -6.3930   39.9220   16.0350 C.3    29  MET29       0.0596
     50  SD        -4.9350   39.3740   16.9670 S.3    29  MET29      -0.1393
     51  CE        -5.6010   38.2080   18.0840 C.3    29  MET29       0.0692
     52  N         -5.1240   43.3890   14.0730 N.am   30  PRO30      -0.2729
     53  CA        -5.3160   44.1690   12.8450 C.3    30  PRO30       0.1401
     54  C         -6.3660   43.4630   11.9870 C.2    30  PRO30       0.2269
     55  O         -6.3200   42.2470   11.8120 O.2    30  PRO30      -0.2865
     56  CB        -3.9280   44.1500   12.2010 C.3    30  PRO30       0.0296
     57  CG        -3.0060   44.0540   13.3930 C.3    30  PRO30       0.0237
     58  CD        -3.7090   43.0070   14.2340 C.3    30  PRO30       0.0939
     59  N         -9.2760   38.9400    8.9960 N.3    49  VAL49      -0.1231
     60  CA        -8.2500   39.0330   10.0290 C.3    49  VAL49       0.1692
     61  C         -7.1450   38.0850    9.5830 C.2    49  VAL49       0.2592
     62  O         -7.2800   36.8630    9.6750 O.2    49  VAL49      -0.2718
     63  CB        -8.7780   38.6010   11.4190 C.3    49  VAL49       0.0266
     64  CG1       -7.6400   38.6040   12.4370 C.3    49  VAL49       0.0020
     65  CG2       -9.8800   39.5570   11.8710 C.3    49  VAL49       0.0020
     66  N         -6.0550   38.6600    9.0920 N.am   50  ALA50      -0.1966
     67  CA        -4.9440   37.8720    8.5840 C.3    50  ALA50       0.1728
     68  C         -3.9550   37.3790    9.6290 C.2    50  ALA50       0.2616
     69  O         -3.5320   38.1310   10.5030 O.2    50  ALA50      -0.2715
     70  CB        -4.1930   38.6780    7.5180 C.3    50  ALA50       0.0334
     71  N         -3.6050   36.1020    9.5410 N.am   51  ASP51      -0.1971
     72  CA        -2.6030   35.5280   10.4290 C.3    51  ASP51       0.1709
     73  C         -1.4300   35.1870    9.5080 C.2    51  ASP51       0.2293
     74  O         -1.4690   34.1850    8.7950 O.2    51  ASP51      -0.2864
     75  CB        -3.0990   34.2470   11.1070 C.3    51  ASP51       0.1436
     76  CG        -2.0750   33.6840   12.0820 C.2    51  ASP51       0.3671
     77  OD1       -0.8620   33.8340   11.8050 O.co2  51  ASP51      -0.2456
     78  OD2       -2.4670   33.0930   13.1160 O.co2  51  ASP51      -0.2456
     79  N        -16.1860   28.1280   24.7080 N.3   134  THR134     -0.1218
     80  CA       -14.9510   27.7110   25.3600 C.3   134  THR134      0.1862
     81  C        -13.9940   28.8860   25.5370 C.2   134  THR134      0.2287
     82  O        -13.7080   29.6180   24.5910 O.2   134  THR134     -0.2866
     83  CB       -14.2640   26.5900   24.5570 C.3   134  THR134      0.1770
     84  OG1      -15.1060   25.4280   24.5550 O.3   134  THR134     -0.2211
     85  CG2      -12.9120   26.2330   25.1740 C.3   134  THR134      0.0375
     86  N        -10.4530   30.6370   26.0080 N.3   136  VAL136     -0.1245
     87  CA        -9.0820   30.3520   25.6140 C.3   136  VAL136      0.1561
     88  C         -8.0900   30.9640   26.5970 C.2   136  VAL136      0.2260
     89  O         -8.0870   32.1770   26.8280 O.2   136  VAL136     -0.2867
     90  CB        -8.7770   30.8920   24.2000 C.3   136  VAL136      0.0252
     91  CG1       -7.3880   30.4330   23.7580 C.3   136  VAL136      0.0019
     92  CG2       -9.8410   30.4070   23.2150 C.3   136  VAL136      0.0019
     93  N         -9.7480   25.9830   26.6380 N.3   161  LYS161     -0.1245
     94  CA        -8.7830   25.6230   25.6090 C.3   161  LYS161      0.1561
     95  C         -7.4400   26.1550   26.0790 C.2   161  LYS161      0.2260
     96  O         -7.2350   27.3720   26.1630 O.2   161  LYS161     -0.2867
     97  CB        -9.1460   26.2510   24.2620 C.3   161  LYS161      0.0271
     98  CG        -8.0400   26.1230   23.2170 C.3   161  LYS161      0.0035
     99  CD        -8.5540   26.4620   21.8250 C.3   161  LYS161      0.0206
    100  CE        -7.4340   26.4700   20.8070 C.3   161  LYS161      0.1093
    101  NZ        -7.9450   26.6420   19.4170 N.3   161  LYS161     -0.1314
    102  N         -3.6140   27.0030   25.7300 N.3   163  LYS163     -0.1245
    103  CA        -2.5840   27.3140   24.7560 C.3   163  LYS163      0.1561
    104  C         -1.2520   26.8960   25.3730 C.2   163  LYS163      0.2260
    105  O         -0.9320   27.2860   26.4990 O.2   163  LYS163     -0.2867
    106  CB        -2.5530   28.8160   24.4570 C.3   163  LYS163      0.0271
    107  CG        -3.6950   29.3040   23.5910 C.3   163  LYS163      0.0035
    108  CD        -3.5790   28.7350   22.1810 C.3   163  LYS163      0.0206
    109  CE        -4.7270   29.2060   21.3100 C.3   163  LYS163      0.1093
    110  NZ        -4.5900   28.7210   19.9040 N.3   163  LYS163     -0.1314
    111  N         -4.1720   23.1710   22.7300 N.3   191  ASP191     -0.1239
    112  CA        -3.7290   23.6410   21.4230 C.3   191  ASP191      0.1674
    113  C         -2.2420   23.9820   21.4870 C.2   191  ASP191      0.2266
    114  O         -1.8360   24.9040   22.2010 O.2   191  ASP191     -0.2867
    115  CB        -4.5280   24.8740   21.0080 C.3   191  ASP191      0.1410
    116  CG        -4.2350   25.3070   19.5830 C.2   191  ASP191      0.3668
    117  OD1       -3.3010   24.7520   18.9580 O.co2 191  ASP191     -0.2456
    118  OD2       -4.9420   26.2080   19.0930 O.co2 191  ASP191     -0.2456
    119  N         -0.4120   24.7740   18.7430 N.3   193  ASN193     -0.1240
    120  CA        -0.0580   25.6890   17.6640 C.3   193  ASN193      0.1653
    121  C          1.3040   25.3620   17.0480 C.2   193  ASN193      0.2266
    122  O          2.1420   26.2500   16.8730 O.2   193  ASN193     -0.2867
    123  CB        -0.0680   27.1430   18.1520 C.3   193  ASN193      0.1155
    124  CG        -1.4650   27.7290   18.2010 C.2   193  ASN193      0.2627
    125  OD1       -2.1470   27.8400   17.1730 O.2   193  ASN193     -0.2716
    126  ND2       -1.9040   28.1010   19.3930 N.am  193  ASN193     -0.0877
    127  N         -4.6920   19.7020   19.7500 N.3   218  GLU218     -0.1245
    128  CA        -4.7720   20.4200   18.4940 C.3   218  GLU218      0.1567
    129  C         -3.4060   20.7870   17.9170 C.2   218  GLU218      0.2260
    130  O         -2.5400   21.3090   18.6150 O.2   218  GLU218     -0.2867
    131  CB        -5.6230   21.6770   18.7100 C.3   218  GLU218      0.0388
    132  CG        -5.9790   22.4610   17.4640 C.3   218  GLU218      0.1160
    133  CD        -6.8870   23.6390   17.7880 C.2   218  GLU218      0.3649
    134  OE1       -7.3790   23.7040   18.9340 O.co2 218  GLU218     -0.2457
    135  OE2       -7.1200   24.4880   16.9040 O.co2 218  GLU218     -0.2457
    136  N         -5.3190   22.0160   12.6600 N.3   243  ASP243     -0.1225
    137  CA        -5.7660   23.3950   12.4530 C.3   243  ASP243      0.1805
    138  C         -4.9460   24.0000   11.3210 C.2   243  ASP243      0.2597
    139  O         -5.3680   23.9740   10.1680 O.2   243  ASP243     -0.2718
    140  CB        -5.6000   24.2460   13.7240 C.3   243  ASP243      0.1424
    141  CG        -6.1220   25.6830   13.5540 C.2   243  ASP243      0.3668
    142  OD1       -6.3200   26.1410   12.4020 O.co2 243  ASP243     -0.2456
    143  OD2       -6.3210   26.3740   14.5790 O.co2 243  ASP243     -0.2456
    144  N         -3.7640   24.5220   11.6410 N.am  244  GLU244     -0.1979
    145  CA        -2.9240   25.1500   10.6240 C.3   244  GLU244      0.1602
    146  C         -2.6510   24.2440    9.4290 C.2   244  GLU244      0.2287
    147  O         -2.4620   24.7340    8.3120 O.2   244  GLU244     -0.2864
    148  CB        -1.6000   25.6280   11.2250 C.3   244  GLU244      0.0415
    149  CG        -1.7530   26.7470   12.2450 C.3   244  GLU244      0.1163
    150  CD        -1.7510   26.2340   13.6770 C.2   244  GLU244      0.3649
    151  OE1       -2.5450   25.3190   13.9880 O.co2 244  GLU244     -0.2457
    152  OE2       -0.9490   26.7510   14.4870 O.co2 244  GLU244     -0.2457
    153  N        -10.1610   21.8910   12.3670 N.3   265  ASN265     -0.1240
    154  CA       -10.5950   23.2220   12.7340 C.3   265  ASN265      0.1653
    155  C        -10.7660   24.0250   11.4530 C.2   265  ASN265      0.2266
    156  O         -9.7880   24.4310   10.8220 O.2   265  ASN265     -0.2867
    157  CB        -9.5520   23.8750   13.6340 C.3   265  ASN265      0.1155
    158  CG       -10.0580   25.1420   14.2930 C.2   265  ASN265      0.2627
    159  OD1      -10.9020   25.8480   13.7450 O.2   265  ASN265     -0.2716
    160  ND2       -9.5240   25.4470   15.4690 N.am  265  ASN265     -0.0877
    161  N        -11.8170   27.3170    9.4360 N.3   267  LYS267     -0.1245
    162  CA       -11.8650   28.7500    9.6930 C.3   267  LYS267      0.1561
    163  C        -12.0790   29.4830    8.3870 C.2   267  LYS267      0.2260
    164  O        -11.4080   29.2030    7.3910 O.2   267  LYS267     -0.2867
    165  CB       -10.5650   29.2210   10.3390 C.3   267  LYS267      0.0271
    166  CG       -10.2810   28.5590   11.6710 C.3   267  LYS267      0.0035
    167  CD        -9.0310   29.1150   12.3040 C.3   267  LYS267      0.0206
    168  CE        -8.6740   28.3310   13.5550 C.3   267  LYS267      0.1093
    169  NZ        -7.4460   28.8910   14.1510 N.3   267  LYS267     -0.1314
    170  N        -11.4900   30.4290   14.7880 N.3   295  SER295     -0.1202
    171  CA       -11.3080   31.7760   14.2740 C.3   295  SER295      0.2020
    172  C         -9.9240   32.3250   14.5930 C.2   295  SER295      0.2619
    173  O         -9.1510   31.7230   15.3470 O.2   295  SER295     -0.2717
    174  CB       -12.3770   32.7180   14.8520 C.3   295  SER295      0.2103
    175  OG       -11.9640   33.2740   16.0930 O.3   295  SER295     -0.2182
    176  N         -9.6140   33.4720   14.0060 N.am  296  MET296     -0.1965
    177  CA        -8.3320   34.1190   14.2380 C.3   296  MET296      0.1736
    178  C         -8.4930   35.1700   15.3290 C.2   296  MET296      0.2616
    179  O         -7.5560   35.9090   15.6210 O.2   296  MET296     -0.2715
    180  CB        -7.8460   34.7750   12.9450 C.3   296  MET296      0.0427
    181  CG        -7.6650   33.7750   11.8020 C.3   296  MET296      0.0599
    182  SD        -6.4510   32.4760   12.1920 S.3   296  MET296     -0.1393
    183  CE        -6.2110   31.8110   10.5110 C.3   296  MET296      0.0692
    184  N         -9.6760   35.1910   15.9480 N.am  297  VAL297     -0.1977
    185  CA       -10.0450   36.1580   16.9860 C.3   297  VAL297      0.1596
    186  C        -10.4310   37.3810   16.1730 C.2   297  VAL297      0.2287
    187  O         -9.6090   38.2530   15.8990 O.2   297  VAL297     -0.2864
    188  CB        -8.8710   36.5030   17.9370 C.3   297  VAL297      0.0276
    189  CG1       -9.3400   37.4940   18.9980 C.3   297  VAL297      0.0022
    190  CG2       -8.3440   35.2340   18.5990 C.3   297  VAL297      0.0022
    191  N        -15.3440   27.9940   18.0570 N.3   320  GLU320     -0.1245
    192  CA       -14.3200   28.7660   18.7520 C.3   320  GLU320      0.1567
    193  C        -14.1770   30.1480   18.1370 C.2   320  GLU320      0.2260
    194  O        -13.2240   30.4230   17.4060 O.2   320  GLU320     -0.2867
    195  CB       -12.9670   28.0460   18.7260 C.3   320  GLU320      0.0388
    196  CG       -12.8290   26.9470   19.7740 C.3   320  GLU320      0.1160
    197  CD       -11.4570   26.2990   19.7590 C.2   320  GLU320      0.3649
    198  OE1      -10.5250   26.8930   19.1740 O.co2 320  GLU320     -0.2457
    199  OE2      -11.3050   25.2050   20.3460 O.co2 320  GLU320     -0.2457
    200  N        -14.4650   33.7640   19.8020 N.3   322  THR322     -0.1203
    201  CA       -14.6760   34.5960   20.9830 C.3   322  THR322      0.1994
    202  C        -14.0680   35.9920   20.9010 C.2   322  THR322      0.2618
    203  O        -13.9160   36.6640   21.9210 O.2   322  THR322     -0.2717
    204  CB       -14.1290   33.8960   22.2390 C.3   322  THR322      0.1784
    205  OG1      -12.7190   33.6740   22.0930 O.3   322  THR322     -0.2211
    206  CG2      -14.8300   32.5610   22.4430 C.3   322  THR322      0.0376
    207  N        -13.7230   36.4280   19.6930 N.am  323  GLY323     -0.1956
    208  CA       -13.1450   37.7500   19.5280 C.3   323  GLY323      0.1869
    209  C        -13.9520   38.8450   20.2100 C.2   323  GLY323      0.2309
    210  O        -13.3830   39.6930   20.8990 O.2   323  GLY323     -0.2863
    211  N        -13.1900   39.2180   23.7610 N.3   326  LYS326     -0.1245
    212  CA       -11.8250   39.5940   24.1110 C.3   326  LYS326      0.1561
    213  C        -11.4570   41.0480   23.8270 C.2   326  LYS326      0.2260
    214  O        -10.5680   41.5990   24.4750 O.2   326  LYS326     -0.2867
    215  CB       -10.8320   38.6730   23.3950 C.3   326  LYS326      0.0271
    216  CG       -10.9180   37.2130   23.8230 C.3   326  LYS326      0.0035
    217  CD        -9.8100   36.3900   23.1870 C.3   326  LYS326      0.0206
    218  CE        -9.7840   34.9710   23.7430 C.3   326  LYS326      0.1093
    219  NZ        -9.5010   34.9230   25.2160 N.3   326  LYS326     -0.1314
@<TRIPOS>BOND
     1   164   163    2
     2    70    67    1
     3   147   146    2
     4   163   162    1
     5    67    66    1
     6    67    68    1
     7    74    73    2
     8    59    60    1
     9    66    61   am
    10   146   145    1
    11   161   162    1
    12    73    72    1
    13    71    68   am
    14    71    72    1
    15    61    62    2
    16    61    60    1
    17    68    69    2
    18   162   165    1
    19    60    63    1
    20   139   138    2
    21   165   166    1
    22    72    75    1
    23   183   182    1
    24   145   148    1
    25   145   144    1
    26   156   155    2
    27    75    76    1
    28   148   149    1
    29   138   144   am
    30   138   137    1
    31    63    65    1
    32    63    64    1
    33   155   154    1
    34   166   167    1
    35   181   182    1
    36   181   180    1
    37    77    76   ar
    38    55    54    2
    39    54    53    1
    40    76    78   ar
    41    56    53    1
    42    56    57    1
    43   149   150    1
    44   167   168    1
    45   153   154    1
    46   142   141   ar
    47   137   136    1
    48   137   140    1
    49   154   157    1
    50    53    52    1
    51   180   177    1
    52    57    58    1
    53   141   140    1
    54   141   143   ar
    55   168   169    1
    56   157   158    1
    57   150   151   ar
    58   150   152   ar
    59   159   158    2
    60   176   177    1
    61   176   172   am
    62    52    58    1
    63    52    46   am
    64   177   178    1
    65   171   172    1
    66   171   170    1
    67   171   174    1
    68   158   160   am
    69    31    30    1
    70   172   173    2
    71   174   175    1
    72    47    46    2
    73    30    28   ar
    74    30    29   ar
    75    46    45    1
    76    28    26   ar
    77    29    27   ar
    78   178   179    2
    79   178   184   am
    80    26    25   ar
    81    27    25   ar
    82    43    42    1
    83    25    24    1
    84   187   186    2
    85   184   185    1
    86    49    48    1
    87    49    50    1
    88   186   185    1
    89    45    48    1
    90    45    44    1
    91    40    42   ar
    92    40    38   ar
    93    24    21    1
    94    42    41   ar
    95    23    22    2
    96   122   121    2
    97   135   133   ar
    98    50    51    1
    99   185   188    1
   100   121   120    1
   101    38    37   ar
   102   125   124    2
   103   194   193    2
   104   132   133    1
   105   132   131    1
   106    22    21    1
   107    21    20    1
   108   120   123    1
   109   120   119    1
   110   133   134   ar
   111    41    39   ar
   112   129   128    1
   113   129   130    2
   114   188   190    1
   115   188   189    1
   116    19    17    1
   117   191   192    1
   118   193   192    1
   119   123   124    1
   120   124   126   am
   121    37    39   ar
   122    37    36    1
   123   128   131    1
   124   128   127    1
   125   195   192    1
   126   195   196    1
   127   117   116   ar
   128   118   116   ar
   129   198   197   ar
   130    17    16    1
   131   101   100    1
   132    36    33    1
   133   208   207    1
   134   208   209    1
   135   116   115    1
   136   207   202   am
   137   197   196    1
   138   197   199   ar
   139   200   201    1
   140   110   109    1
   141   209   210    2
   142    10     8   ar
   143    10    11   ar
   144    33    32    1
   145    33    34    1
   146    16    18    1
   147    16    13    1
   148     8     6   ar
   149   100    99    1
   150   202   201    1
   151   202   203    2
   152   201   204    1
   153   115   112    1
   154    11     9   ar
   155    15    14    2
   156    14    13    1
   157   109   108    1
   158    34    35    2
   159   112   113    1
   160   112   111    1
   161   113   114    2
   162    13    12    1
   163    99    98    1
   164     6     5    1
   165     6     7   ar
   166   205   204    1
   167   108   107    1
   168   204   206    1
   169     5     2    1
   170     4     3    2
   171     9     7   ar
   172   217   218    1
   173   217   216    1
   174    92    90    1
   175    98    97    1
   176     3     2    1
   177   215   216    1
   178   215   212    1
   179     2     1    1
   180   107   106    1
   181   218   219    1
   182    91    90    1
   183   211   212    1
   184   213   212    1
   185   213   214    2
   186    90    87    1
   187    97    94    1
   188   106   103    1
   189    84    83    1
   190    83    85    1
   191    83    80    1
   192    82    81    2
   193    79    80    1
   194   103   104    1
   195   103   102    1
   196    80    81    1
   197   104   105    2
   198    94    95    1
   199    94    93    1
   200    87    86    1
   201    87    88    1
   202    95    96    2
   203    88    89    2
