@<TRIPOS>MOLECULE
tmp/2p8iC00.pdb
 103 100 0 0 0
SMALL
GASTEIGER

@<TRIPOS>ATOM
      1  N         30.8300    9.3670  -16.5890 N.3    13  HIS13      -0.1241
      2  CA        30.8410    8.6140  -15.3620 C.3    13  HIS13       0.1621
      3  C         31.4240    9.4640  -14.2590 C.2    13  HIS13       0.2264
      4  O         32.5050   10.0430  -14.4450 O.2    13  HIS13      -0.2867
      5  CB        31.6970    7.3670  -15.5660 C.3    13  HIS13       0.0745
      6  CG        31.0830    6.3620  -16.4930 C.ar   13  HIS13       0.0817
      7  ND1       30.6610    5.1390  -16.0450 N.ar   13  HIS13      -0.2268
      8  CD2       30.7630    6.4210  -17.8050 C.ar   13  HIS13       0.1154
      9  CE1       30.1230    4.4660  -17.0530 C.ar   13  HIS13       0.1986
     10  NE2       30.1470    5.2340  -18.1230 N.ar   13  HIS13      -0.2212
     11  N         32.4220    9.5010   -9.9600 N.3    15  HIS15      -0.1241
     12  CA        32.7510    8.6660   -8.8070 C.3    15  HIS15       0.1621
     13  C         32.8730    9.6260   -7.6070 C.2    15  HIS15       0.2264
     14  O         33.7400   10.4830   -7.5570 O.2    15  HIS15      -0.2867
     15  CB        34.0410    7.8790   -9.0070 C.3    15  HIS15       0.0745
     16  CG        33.9550    6.8920  -10.1280 C.ar   15  HIS15       0.0817
     17  ND1       33.5300    5.5930   -9.9110 N.ar   15  HIS15      -0.2268
     18  CD2       34.1760    7.0140  -11.4580 C.ar   15  HIS15       0.1154
     19  CE1       33.5320    4.9450  -11.0720 C.ar   15  HIS15       0.1986
     20  NE2       33.9260    5.7780  -12.0190 N.ar   15  HIS15      -0.2212
     21  N         38.1780    0.5200   -5.2230 N.3    51  VAL51      -0.1231
     22  CA        37.9000   -0.3530   -6.3450 C.3    51  VAL51       0.1692
     23  C         38.4680    0.2640   -7.6150 C.2    51  VAL51       0.2593
     24  O         38.6880    1.4630   -7.7160 O.2    51  VAL51      -0.2718
     25  CB        36.3540   -0.6300   -6.5240 C.3    51  VAL51       0.0266
     26  CG1       35.7800   -1.2770   -5.2600 C.3    51  VAL51       0.0020
     27  CG2       35.6010    0.5920   -6.9330 C.3    51  VAL51       0.0020
     28  N         38.7140   -0.5550   -8.6090 N.am   52  GLY52      -0.1943
     29  CA        39.2330   -0.0820   -9.8780 C.3    52  GLY52       0.1998
     30  C         40.4650    0.8140   -9.6830 C.2    52  GLY52       0.2481
     31  O         41.3930    0.4430   -8.9740 O.2    52  GLY52      -0.2729
     32  N         40.5340    1.9390  -10.4050 N.am   53  PRO53      -0.2715
     33  CA        41.6560    2.8530  -10.2840 C.3    53  PRO53       0.1536
     34  C         41.5240    3.8370   -9.1200 C.2    53  PRO53       0.2598
     35  O         42.3660    4.7060   -9.0020 O.2    53  PRO53      -0.2715
     36  CB        41.5980    3.6360  -11.5850 C.3    53  PRO53       0.0310
     37  CG        40.0970    3.7550  -11.8140 C.3    53  PRO53       0.0237
     38  CD        39.5800    2.4090  -11.4130 C.3    53  PRO53       0.0939
     39  N         40.5230    3.7180   -8.2670 N.am   54  HIS54      -0.1974
     40  CA        40.1840    4.8130   -7.3450 C.3    54  HIS54       0.1656
     41  C         40.9810    4.7470   -6.0690 C.2    54  HIS54       0.2291
     42  O         41.2070    3.6640   -5.5200 O.2    54  HIS54      -0.2864
     43  CB        38.6740    4.8260   -7.0660 C.3    54  HIS54       0.0771
     44  CG        37.8750    4.8950   -8.3060 C.ar   54  HIS54       0.0820
     45  ND1       37.9530    5.9660   -9.1790 N.ar   54  HIS54      -0.2267
     46  CD2       37.1250    3.9520   -8.9130 C.ar   54  HIS54       0.1154
     47  CE1       37.2180    5.6900  -10.2440 C.ar   54  HIS54       0.1986
     48  NE2       36.7020    4.4800  -10.1070 N.ar   54  HIS54      -0.2212
     49  N         29.6250    5.1360   -7.9460 N.3    59  GLN59      -0.1245
     50  CA        29.5950    5.5850   -9.3300 C.3    59  GLN59       0.1566
     51  C         28.2170    6.0600   -9.7630 C.2    59  GLN59       0.2260
     52  O         27.1800    5.5140   -9.2850 O.2    59  GLN59      -0.2867
     53  CB        30.0370    4.4420  -10.2520 C.3    59  GLN59       0.0367
     54  CG        30.2340    4.8770  -11.6980 C.3    59  GLN59       0.0905
     55  CD        30.8860    3.8140  -12.5940 C.2    59  GLN59       0.2608
     56  OE1       31.2510    4.1160  -13.7290 O.2    59  GLN59      -0.2717
     57  NE2       31.0970    2.6420  -12.0720 N.am   59  GLN59      -0.0878
     58  N         34.6480   11.6420  -15.6840 N.3    86  HIS86      -0.1241
     59  CA        35.3300   11.4930  -16.9680 C.3    86  HIS86       0.1621
     60  C         34.3550   11.0460  -18.0450 C.2    86  HIS86       0.2264
     61  O         33.3830   10.3820  -17.7530 O.2    86  HIS86      -0.2867
     62  CB        36.4910   10.5050  -16.8710 C.3    86  HIS86       0.0745
     63  CG        36.0410    9.1000  -16.7270 C.ar   86  HIS86       0.0817
     64  ND1       35.7830    8.2730  -17.8050 N.ar   86  HIS86      -0.2268
     65  CD2       35.6790    8.4100  -15.6280 C.ar   86  HIS86       0.1154
     66  CE1       35.3040    7.1250  -17.3610 C.ar   86  HIS86       0.1986
     67  NE2       35.2640    7.1670  -16.0410 N.ar   86  HIS86      -0.2212
     68  N         33.3620    8.7690  -21.3450 N.3    88  ASN88      -0.1240
     69  CA        33.5590    7.4460  -21.8960 C.3    88  ASN88       0.1653
     70  C         33.5300    7.6090  -23.3880 C.2    88  ASN88       0.2266
     71  O         32.4840    7.8670  -23.9820 O.2    88  ASN88      -0.2867
     72  CB        32.4300    6.4950  -21.4250 C.3    88  ASN88       0.1155
     73  CG        32.5460    5.1310  -21.9960 C.2    88  ASN88       0.2627
     74  OD1       33.5520    4.7800  -22.6380 O.2    88  ASN88      -0.2716
     75  ND2       31.4870    4.3310  -21.7850 N.am   88  ASN88      -0.0877
     76  N         39.3730    3.5300  -22.0960 N.3    92  ALA92      -0.1245
     77  CA        39.3700    3.7700  -20.6820 C.3    92  ALA92       0.1562
     78  C         40.6250    4.4370  -20.1720 C.2    92  ALA92       0.2260
     79  O         40.5580    5.4090  -19.3700 O.2    92  ALA92      -0.2867
     80  CB        39.1420    2.4630  -19.9400 C.3    92  ALA92       0.0290
     81  N         40.5850    8.2380  -18.5560 N.3    96  HIS96      -0.1241
     82  CA        40.9250    8.4670  -17.1630 C.3    96  HIS96       0.1621
     83  C         42.1960    9.2450  -16.9770 C.2    96  HIS96       0.2264
     84  O         42.3020   10.0110  -16.0360 O.2    96  HIS96      -0.2867
     85  CB        41.1060    7.1200  -16.4330 C.3    96  HIS96       0.0745
     86  CG        39.8400    6.3700  -16.1520 C.ar   96  HIS96       0.0817
     87  ND1       39.1340    5.7090  -17.1270 N.ar   96  HIS96      -0.2268
     88  CD2       39.2010    6.1130  -14.9810 C.ar   96  HIS96       0.1154
     89  CE1       38.1040    5.0910  -16.5630 C.ar   96  HIS96       0.1986
     90  NE2       38.1110    5.3300  -15.2640 N.ar   96  HIS96      -0.2212
     91  N         45.2820   -0.2100  -13.0200 N.3   113  ALA113     -0.1231
     92  CA        44.1350   -1.0780  -12.7530 C.3   113  ALA113      0.1694
     93  C         43.1820   -1.1720  -13.9650 C.2   113  ALA113      0.2591
     94  O         42.3330   -2.0830  -14.0200 O.2   113  ALA113     -0.2718
     95  CB        43.3550   -0.6310  -11.5530 C.3   113  ALA113      0.0304
     96  N         43.3000   -0.2310  -14.8920 N.am  114  LEU114     -0.1980
     97  CA        42.4790   -0.2260  -16.1130 C.3   114  LEU114      0.1596
     98  C         43.0180   -1.2600  -17.1090 C.2   114  LEU114      0.2287
     99  O         44.0980   -1.8070  -16.8970 O.2   114  LEU114     -0.2864
    100  CB        42.5080    1.1620  -16.7510 C.3   114  LEU114      0.0297
    101  CG        42.0060    2.2860  -15.8420 C.3   114  LEU114      0.0022
    102  CD1       42.2430    3.6500  -16.4850 C.3   114  LEU114      0.0001
    103  CD2       40.5130    2.1480  -15.4210 C.3   114  LEU114      0.0001
@<TRIPOS>BOND
     1    71    70    2
     2    70    69    1
     3    74    73    2
     4    76    77    1
     5    73    75   am
     6    73    72    1
     7    69    72    1
     8    69    68    1
     9    77    78    1
    10    77    80    1
    11    78    79    2
    12    81    82    1
    13    10     8   ar
    14    10     9   ar
    15    60    61    2
    16    60    59    1
    17     8     6   ar
    18    64    66   ar
    19    64    63   ar
    20    66    67   ar
    21    82    83    1
    22    82    85    1
    23    87    89   ar
    24    87    86   ar
    25    98    99    2
    26    98    97    1
    27     9     7   ar
    28    83    84    2
    29    59    62    1
    30    59    58    1
    31    62    63    1
    32   100    97    1
    33   100   101    1
    34    63    65   ar
    35     1     2    1
    36    89    90   ar
    37     6     7   ar
    38     6     5    1
    39   102   101    1
    40    85    86    1
    41    86    88   ar
    42    97    96    1
    43    67    65   ar
    44   101   103    1
    45     5     2    1
    46     2     3    1
    47    90    88   ar
    48    96    93   am
    49     4     3    2
    50    94    93    2
    51    93    92    1
    52    56    55    2
    53    91    92    1
    54    92    95    1
    55    55    57   am
    56    55    54    1
    57    20    18   ar
    58    20    19   ar
    59    37    36    1
    60    37    38    1
    61    54    53    1
    62    36    33    1
    63    18    16   ar
    64    38    32    1
    65    19    17   ar
    66    32    33    1
    67    32    30   am
    68    33    34    1
    69    53    50    1
    70    47    48   ar
    71    47    45   ar
    72    16    17   ar
    73    16    15    1
    74    48    46   ar
    75    11    12    1
    76    29    30    1
    77    29    28    1
    78    51    50    1
    79    51    52    2
    80    30    31    2
    81    50    49    1
    82    45    44   ar
    83    34    35    2
    84    34    39   am
    85    15    12    1
    86    46    44   ar
    87    12    13    1
    88    28    23   am
    89    44    43    1
    90    39    40    1
    91    24    23    2
    92    23    22    1
    93    13    14    2
    94    40    43    1
    95    40    41    1
    96    27    25    1
    97    25    22    1
    98    25    26    1
    99    22    21    1
   100    41    42    2
