@<TRIPOS>MOLECULE
tmp/2p8lB00.pdb
 121 115 0 0 0
SMALL
GASTEIGER

@<TRIPOS>ATOM
      1  N         -1.6690   47.5540   94.8270 N.3    32  PHE32      -0.1227
      2  CA        -1.1700   48.8010   94.3200 C.3    32  PHE32       0.1736
      3  C         -0.3040   48.7850   93.0630 C.2    32  PHE32       0.2596
      4  O          0.7080   48.0800   92.9780 O.2    32  PHE32      -0.2718
      5  CB        -0.4390   49.5340   95.4310 C.3    32  PHE32       0.0547
      6  CG         0.1510   50.8110   94.9810 C.ar   32  PHE32      -0.0202
      7  CD1       -0.6600   51.9020   94.7000 C.ar   32  PHE32      -0.0042
      8  CD2        1.5090   50.8980   94.7400 C.ar   32  PHE32      -0.0042
      9  CE1       -0.1250   53.0550   94.1800 C.ar   32  PHE32      -0.0003
     10  CE2        2.0550   52.0460   94.2190 C.ar   32  PHE32      -0.0003
     11  CZ         1.2370   53.1310   93.9350 C.ar   32  PHE32      -0.0000
     12  N         -0.7320   49.5910   92.0940 N.am   33  GLY33      -0.1957
     13  CA        -0.0260   49.7510   90.8340 C.3    33  GLY33       0.1869
     14  C          0.0840   48.5660   89.9020 C.2    33  GLY33       0.2309
     15  O          0.6530   48.6920   88.8200 O.2    33  GLY33      -0.2863
     16  N         -4.9420   48.4340   84.8860 N.3    54  TYR54      -0.1241
     17  CA        -4.3570   48.4540   86.2210 C.3    54  TYR54       0.1605
     18  C         -5.3830   48.2810   87.3240 C.2    54  TYR54       0.2264
     19  O         -6.5800   48.4570   87.1130 O.2    54  TYR54      -0.2867
     20  CB        -3.5970   49.7490   86.4490 C.3    54  TYR54       0.0534
     21  CG        -2.5580   50.0250   85.4020 C.ar   54  TYR54      -0.0201
     22  CD1       -2.8700   50.7760   84.2720 C.ar   54  TYR54      -0.0009
     23  CD2       -1.2510   49.5560   85.5480 C.ar   54  TYR54      -0.0009
     24  CE1       -1.9160   51.0610   83.3180 C.ar   54  TYR54       0.0417
     25  CE2       -0.2820   49.8330   84.5940 C.ar   54  TYR54       0.0417
     26  CZ        -0.6260   50.5870   83.4820 C.ar   54  TYR54       0.1957
     27  OH         0.3110   50.8640   82.5230 O.3    54  TYR54      -0.2866
     28  N         -6.2720   50.1750   89.5380 N.3    56  ASP56      -0.1239
     29  CA        -7.0650   51.3640   89.8610 C.3    56  ASP56       0.1674
     30  C         -8.0920   51.6100   88.7490 C.2    56  ASP56       0.2266
     31  O         -8.8110   52.6060   88.7510 O.2    56  ASP56      -0.2867
     32  CB        -6.1750   52.6100   90.0710 C.3    56  ASP56       0.1410
     33  CG        -5.3780   53.0080   88.8310 C.2    56  ASP56       0.3668
     34  OD1       -5.4680   52.3310   87.7840 O.co2  56  ASP56      -0.2456
     35  OD2       -4.6480   54.0200   88.9140 O.co2  56  ASP56      -0.2456
     36  N         -7.3680   52.0000   85.5400 N.3    58  ASP58      -0.1239
     37  CA        -6.8040   52.7990   84.4640 C.3    58  ASP58       0.1674
     38  C         -6.6110   51.8280   83.2860 C.2    58  ASP58       0.2266
     39  O         -6.1890   50.6890   83.4880 O.2    58  ASP58      -0.2867
     40  CB        -5.4590   53.3550   84.9260 C.3    58  ASP58       0.1410
     41  CG        -4.9160   54.4260   84.0110 C.2    58  ASP58       0.3668
     42  OD1       -3.7220   54.7590   84.1570 O.co2  58  ASP58      -0.2456
     43  OD2       -5.6720   54.9390   83.1630 O.co2  58  ASP58      -0.2456
     44  N         -5.3860   51.4030   78.9210 N.3    60  ARG60      -0.1245
     45  CA        -4.7860   51.9500   77.7160 C.3    60  ARG60       0.1563
     46  C         -4.8990   50.8830   76.6470 C.2    60  ARG60       0.2260
     47  O         -4.8860   49.6850   76.9390 O.2    60  ARG60      -0.2867
     48  CB        -3.3110   52.2990   77.9070 C.3    60  ARG60       0.0307
     49  CG        -3.0340   53.3560   78.9400 C.3    60  ARG60       0.0489
     50  CD        -3.5210   54.7410   78.5350 C.3    60  ARG60       0.2205
     51  NE        -4.1900   55.3500   79.6830 N.pl3  60  ARG60      -0.0865
     52  CZ        -3.9050   56.5440   80.1820 C.cat  60  ARG60       0.5346
     53  NH1       -2.9660   57.2720   79.6340 N.pl3  60  ARG60       0.1354
     54  NH2       -4.5400   56.9960   81.2500 N.pl3  60  ARG60       0.1354
     55  N          2.2390   42.8490   85.2620 N.3   100  ARG100     -0.1231
     56  CA         3.1420   43.9740   85.3390 C.3   100  ARG100      0.1694
     57  C          3.1850   44.3820   86.7960 C.2   100  ARG100      0.2591
     58  O          2.1520   44.6450   87.4070 O.2   100  ARG100     -0.2718
     59  CB         2.6560   45.1600   84.5160 C.3   100  ARG100      0.0321
     60  CG         3.6880   46.2700   84.5100 C.3   100  ARG100      0.0489
     61  CD         3.1940   47.5450   83.8830 C.3   100  ARG100      0.2205
     62  NE         4.3220   48.4370   83.6340 N.pl3 100  ARG100     -0.0865
     63  CZ         4.2180   49.6840   83.1760 C.cat 100  ARG100      0.5346
     64  NH1        3.0270   50.2120   82.9190 N.pl3 100  ARG100      0.1354
     65  NH2        5.3110   50.4010   82.9440 N.pl3 100  ARG100      0.1354
     66  N          4.3810   44.4210   87.3580 N.am  101  ARG101     -0.1980
     67  CA         4.5130   44.8060   88.7410 C.3   101  ARG101      0.1597
     68  C          4.1840   46.2630   88.9370 C.2   101  ARG101      0.2287
     69  O          4.3400   47.0830   88.0340 O.2   101  ARG101     -0.2864
     70  CB         5.9420   44.5860   89.2340 C.3   101  ARG101      0.0334
     71  CG         6.3190   43.1470   89.4520 C.3   101  ARG101      0.0492
     72  CD         7.7350   43.0500   89.9770 C.3   101  ARG101      0.2205
     73  NE         8.7270   43.3760   88.9570 N.pl3 101  ARG101     -0.0865
     74  CZ         9.5900   42.4960   88.4520 C.cat 101  ARG101      0.5346
     75  NH1        9.5840   41.2330   88.8760 N.pl3 101  ARG101      0.1354
     76  NH2       10.4560   42.8740   87.5230 N.pl3 101  ARG101      0.1354
     77  N          4.8200   49.6560   91.5960 N.3   103  PRO103     -0.2116
     78  CA         6.0320   50.1500   92.2440 C.3   103  PRO103      0.1372
     79  C          6.2810   49.5050   93.5930 C.2   103  PRO103      0.2244
     80  O          5.3480   49.1310   94.3060 O.2   103  PRO103     -0.2868
     81  CB         5.7650   51.6430   92.3780 C.3   103  PRO103      0.0268
     82  CG         4.9100   51.9300   91.1960 C.3   103  PRO103      0.0207
     83  CD         3.9420   50.7750   91.2220 C.3   103  PRO103      0.0892
     84  N          5.5770   54.2600   97.8110 N.3   110  PRO110     -0.2116
     85  CA         6.3650   53.8800   96.6350 C.3   110  PRO110      0.1372
     86  C          7.7840   54.4380   96.7360 C.2   110  PRO110      0.2244
     87  O          7.9690   55.6450   96.9090 O.2   110  PRO110     -0.2868
     88  CB         5.5690   54.4840   95.4780 C.3   110  PRO110      0.0268
     89  CG         4.9120   55.6740   96.1070 C.3   110  PRO110      0.0207
     90  CD         4.4490   55.1270   97.4340 C.3   110  PRO110      0.0892
     91  N         10.5080   52.6630   94.6970 N.3   112  ALA112     -0.1231
     92  CA        11.2210   52.2400   93.4950 C.3   112  ALA112      0.1694
     93  C         10.2450   51.9520   92.3660 C.2   112  ALA112      0.2591
     94  O          9.3740   51.0950   92.4930 O.2   112  ALA112     -0.2718
     95  CB        12.0670   50.9960   93.7860 C.3   112  ALA112      0.0304
     96  N         10.3890   52.6700   91.2620 N.am  113  ARG113     -0.1980
     97  CA         9.5060   52.4630   90.1270 C.3   113  ARG113      0.1597
     98  C         10.1680   51.5910   89.0710 C.2   113  ARG113      0.2287
     99  O          9.5350   51.2030   88.0930 O.2   113  ARG113     -0.2864
    100  CB         9.0870   53.8090   89.5180 C.3   113  ARG113      0.0334
    101  CG        10.2340   54.7390   89.1820 C.3   113  ARG113      0.0492
    102  CD         9.7360   56.0280   88.5370 C.3   113  ARG113      0.2205
    103  NE        10.8490   56.8500   88.0740 N.pl3 113  ARG113     -0.0865
    104  CZ        10.7510   57.8080   87.1580 C.cat 113  ARG113      0.5346
    105  NH1        9.5790   58.0800   86.5920 N.pl3 113  ARG113      0.1354
    106  NH2       11.8350   58.4770   86.7880 N.pl3 113  ARG113      0.1354
    107  N          8.5630   48.2950   87.4560 N.3   116  VAL116     -0.1231
    108  CA         7.3860   48.3810   86.5850 C.3   116  VAL116      0.1692
    109  C          7.7800   48.3410   85.1120 C.2   116  VAL116      0.2592
    110  O          6.9210   48.2060   84.2340 O.2   116  VAL116     -0.2718
    111  CB         6.5820   49.6890   86.7920 C.3   116  VAL116      0.0266
    112  CG1        6.3060   49.9120   88.2600 C.3   116  VAL116      0.0020
    113  CG2        7.3300   50.8750   86.1720 C.3   116  VAL116      0.0020
    114  N          9.0740   48.4630   84.8410 N.am  117  ASN117     -0.1974
    115  CA         9.5300   48.4700   83.4650 C.3   117  ASN117      0.1688
    116  C          9.7780   47.0900   82.8640 C.2   117  ASN117      0.2292
    117  O         10.9130   46.7200   82.5450 O.2   117  ASN117     -0.2864
    118  CB        10.7640   49.3690   83.3350 C.3   117  ASN117      0.1181
    119  CG        10.4340   50.8350   83.5890 C.2   117  ASN117      0.2629
    120  OD1        9.3640   51.3150   83.2050 O.2   117  ASN117     -0.2716
    121  ND2       11.3500   51.5520   84.2250 N.am  117  ASN117     -0.0877
@<TRIPOS>BOND
     1    46    47    2
     2    46    45    1
     3    45    48    1
     4    45    44    1
     5    48    49    1
     6    50    49    1
     7    50    51    1
     8    53    52    1
     9    51    52    2
    10    52    54    1
    11    27    26    1
    12   117   116    2
    13   116   115    1
    14    64    63    1
    15    65    63    1
    16    43    41   ar
    17    63    62    2
    18   120   119    2
    19    38    39    2
    20    38    37    1
    21    24    26   ar
    22    24    22   ar
    23   118   115    1
    24   118   119    1
    25   115   114    1
    26    26    25   ar
    27   119   121   am
    28    62    61    1
    29    61    60    1
    30    41    42   ar
    31    41    40    1
    32   110   109    2
    33    22    21   ar
    34    37    40    1
    35    37    36    1
    36    60    59    1
    37    59    56    1
    38    25    23   ar
    39   114   109   am
    40    16    17    1
    41   109   108    1
    42    55    56    1
    43    56    57    1
    44    21    23   ar
    45    21    20    1
    46   113   111    1
    47    17    20    1
    48    17    18    1
    49   108   111    1
    50   108   107    1
    51   105   104    1
    52   106   104    1
    53   111   112    1
    54    57    66   am
    55    57    58    2
    56    19    18    2
    57   104   103    2
    58    66    67    1
    59    76    74    1
    60    34    33   ar
    61    69    68    2
    62   103   102    1
    63    99    98    2
    64    74    75    1
    65    74    73    2
    66   102   101    1
    67    67    68    1
    68    67    70    1
    69    30    31    2
    70    30    29    1
    71    15    14    2
    72    33    35   ar
    73    33    32    1
    74    73    72    1
    75    98    97    1
    76   101   100    1
    77    70    71    1
    78    71    72    1
    79   100    97    1
    80    28    29    1
    81    29    32    1
    82    14    13    1
    83    97    96    1
    84    13    12    1
    85    82    83    1
    86    82    81    1
    87    83    77    1
    88    96    93   am
    89    77    78    1
    90    12     3   am
    91    78    81    1
    92    78    79    1
    93    93    94    2
    94    93    92    1
    95     4     3    2
    96     3     2    1
    97    92    95    1
    98    92    91    1
    99    79    80    2
   100    11     9   ar
   101    11    10   ar
   102     9     7   ar
   103    10     8   ar
   104     2     1    1
   105     2     5    1
   106     7     6   ar
   107     8     6   ar
   108     6     5    1
   109    88    89    1
   110    88    85    1
   111    89    90    1
   112    85    86    1
   113    85    84    1
   114    86    87    2
   115    90    84    1
