@<TRIPOS>MOLECULE
tmp/2p8nA00.pdb
 88 85 0 0 0
SMALL
GASTEIGER

@<TRIPOS>ATOM
      1  N        -23.5360    5.1970  -11.3120 N.3    75  TYR75      -0.1227
      2  CA       -23.9830    5.7390  -10.0380 C.3    75  TYR75       0.1736
      3  C        -23.7330    4.7840   -8.8620 C.2    75  TYR75       0.2595
      4  O        -24.0600    3.5970   -8.9320 O.2    75  TYR75      -0.2718
      5  CB       -25.4760    6.0800  -10.1720 C.3    75  TYR75       0.0548
      6  CG       -26.1030    6.8590   -9.0360 C.ar   75  TYR75      -0.0200
      7  CD1      -26.4870    6.2220   -7.8570 C.ar   75  TYR75      -0.0009
      8  CD2      -26.3540    8.2280   -9.1580 C.ar   75  TYR75      -0.0009
      9  CE1      -27.1100    6.9240   -6.8270 C.ar   75  TYR75       0.0417
     10  CE2      -26.9780    8.9430   -8.1310 C.ar   75  TYR75       0.0417
     11  CZ       -27.3520    8.2820   -6.9700 C.ar   75  TYR75       0.1957
     12  OH       -27.9730    8.9690   -5.9530 O.3    75  TYR75      -0.2866
     13  N        -23.1080    5.2990   -7.8030 N.am   76  VAL76      -0.1980
     14  CA       -22.8680    4.5090   -6.5950 C.3    76  VAL76       0.1595
     15  C        -24.2340    4.4340   -5.9210 C.2    76  VAL76       0.2287
     16  O        -24.7850    5.4660   -5.5330 O.2    76  VAL76      -0.2864
     17  CB       -21.8930    5.2150   -5.6270 C.3    76  VAL76       0.0276
     18  CG1      -21.8400    4.4590   -4.3090 C.3    76  VAL76       0.0022
     19  CG2      -20.5010    5.3010   -6.2480 C.3    76  VAL76       0.0022
     20  N        -28.6900    4.1030   -0.8690 N.3    88  PHE88      -0.1241
     21  CA       -29.3140    5.4200   -0.9600 C.3    88  PHE88       0.1605
     22  C        -30.7930    5.2040   -1.2910 C.2    88  PHE88       0.2264
     23  O        -31.1730    4.1330   -1.7780 O.2    88  PHE88      -0.2867
     24  CB       -28.6610    6.2450   -2.0670 C.3    88  PHE88       0.0534
     25  CG       -27.2430    6.6570   -1.7680 C.ar   88  PHE88      -0.0203
     26  CD1      -26.9480    7.4370   -0.6520 C.ar   88  PHE88      -0.0042
     27  CD2      -26.2020    6.2770   -2.6130 C.ar   88  PHE88      -0.0042
     28  CE1      -25.6300    7.8370   -0.3800 C.ar   88  PHE88      -0.0003
     29  CE2      -24.8850    6.6700   -2.3490 C.ar   88  PHE88      -0.0003
     30  CZ       -24.6020    7.4510   -1.2300 C.ar   88  PHE88      -0.0000
     31  N        -28.6540    9.8830   -3.0260 N.3   116  GLY116     -0.1210
     32  CA       -27.2080   10.0020   -3.1090 C.3   116  GLY116      0.1956
     33  C        -26.7110   11.0970   -4.0370 C.2   116  GLY116      0.2612
     34  O        -25.5480   11.0910   -4.4430 O.2   116  GLY116     -0.2717
     35  N        -27.5830   12.0410   -4.3730 N.am  117  ASN117     -0.1960
     36  CA       -27.2100   13.1400   -5.2540 C.3   117  ASN117      0.1819
     37  C        -26.3570   14.1540   -4.4910 C.2   117  ASN117      0.2621
     38  O        -26.4750   14.2780   -3.2720 O.2   117  ASN117     -0.2715
     39  CB       -28.4700   13.8060   -5.8160 C.3   117  ASN117      0.1195
     40  CG       -29.4200   14.2680   -4.7280 C.2   117  ASN117      0.2630
     41  OD1      -29.2350   15.3270   -4.1320 O.2   117  ASN117     -0.2716
     42  ND2      -30.4360   13.4600   -4.4520 N.am  117  ASN117     -0.0877
     43  N        -25.4900   14.8680   -5.2010 N.am  118  TYR118     -0.1974
     44  CA       -24.6270   15.8530   -4.5510 C.3   118  TYR118      0.1639
     45  C        -25.3850   16.8790   -3.7180 C.2   118  TYR118      0.2290
     46  O        -24.9720   17.1950   -2.6000 O.2   118  TYR118     -0.2864
     47  CB       -23.7700   16.5910   -5.5830 C.3   118  TYR118      0.0560
     48  CG       -22.6990   15.7360   -6.2240 C.ar  118  TYR118     -0.0198
     49  CD1      -21.9000   14.8860   -5.4530 C.ar  118  TYR118     -0.0009
     50  CD2      -22.4620   15.8000   -7.5930 C.ar  118  TYR118     -0.0009
     51  CE1      -20.8860   14.1180   -6.0380 C.ar  118  TYR118      0.0417
     52  CE2      -21.4520   15.0410   -8.1860 C.ar  118  TYR118      0.0417
     53  CZ       -20.6720   14.2050   -7.4060 C.ar  118  TYR118      0.1957
     54  OH       -19.6780   13.4600   -7.9980 O.3   118  TYR118     -0.2866
     55  N        -17.3820    8.9060   -4.5650 N.3   167  ILE167     -0.1245
     56  CA       -18.0900    9.1270   -5.8210 C.3   167  ILE167      0.1561
     57  C        -17.2420    9.8720   -6.8500 C.2   167  ILE167      0.2260
     58  O        -17.1850    9.4900   -8.0150 O.2   167  ILE167     -0.2867
     59  CB       -19.3930    9.9170   -5.5850 C.3   167  ILE167      0.0252
     60  CG1      -20.3760    9.0650   -4.7760 C.3   167  ILE167      0.0019
     61  CG2      -20.0060   10.3230   -6.9250 C.3   167  ILE167      0.0019
     62  CD1      -21.5560    9.8410   -4.2040 C.3   167  ILE167      0.0001
     63  N        -16.5660    7.1470   -9.5300 N.3   171  SER171     -0.1202
     64  CA       -17.5550    7.3450  -10.5860 C.3   171  SER171      0.2020
     65  C        -17.2220    8.4820  -11.5510 C.2   171  SER171      0.2618
     66  O        -17.2140    8.2820  -12.7660 O.2   171  SER171     -0.2717
     67  CB       -18.9500    7.5560   -9.9840 C.3   171  SER171      0.2103
     68  OG       -19.3870    6.3770   -9.3360 O.3   171  SER171     -0.2182
     69  N        -16.9360    9.6730  -11.0300 N.am  172  GLU172     -0.1979
     70  CA       -16.6180   10.7860  -11.9150 C.3   172  GLU172      0.1602
     71  C        -15.3230   10.5320  -12.6910 C.2   172  GLU172      0.2287
     72  O        -15.2130   10.9150  -13.8570 O.2   172  GLU172     -0.2864
     73  CB       -16.5400   12.0940  -11.1200 C.3   172  GLU172      0.0415
     74  CG       -17.8380   12.4330  -10.3750 C.3   172  GLU172      0.1163
     75  CD       -18.9980   12.8150  -11.2980 C.2   172  GLU172      0.3649
     76  OE1      -18.9400   12.5270  -12.5130 O.co2 172  GLU172     -0.2457
     77  OE2      -19.9840   13.3950  -10.7950 O.co2 172  GLU172     -0.2457
     78  N        -16.1020    8.2930  -15.5870 N.3   175  ARG175     -0.1245
     79  CA       -16.8370    9.0380  -16.6120 C.3   175  ARG175      0.1563
     80  C        -15.9740   10.0030  -17.4320 C.2   175  ARG175      0.2260
     81  O        -16.1680   10.1410  -18.6460 O.2   175  ARG175     -0.2867
     82  CB       -17.9650    9.8540  -15.9730 C.3   175  ARG175      0.0307
     83  CG       -19.0970    9.0630  -15.3650 C.3   175  ARG175      0.0489
     84  CD       -19.8890    9.9620  -14.4250 C.3   175  ARG175      0.2205
     85  NE       -21.1130    9.3320  -13.9490 N.pl3 175  ARG175     -0.0865
     86  CZ       -21.7200    9.6480  -12.8100 C.cat 175  ARG175      0.5346
     87  NH1      -21.2110   10.5840  -12.0240 N.pl3 175  ARG175      0.1354
     88  NH2      -22.8430    9.0300  -12.4580 N.pl3 175  ARG175      0.1354
@<TRIPOS>BOND
     1    81    80    2
     2    80    79    1
     3    79    82    1
     4    79    78    1
     5    82    83    1
     6    83    84    1
     7    84    85    1
     8    85    86    2
     9    72    71    2
    10    86    88    1
    11    86    87    1
    12    66    65    2
    13    71    70    1
    14    76    75   ar
    15    70    73    1
    16    70    69    1
    17    65    69   am
    18    65    64    1
    19     1     2    1
    20    75    77   ar
    21    75    74    1
    22    73    74    1
    23    64    67    1
    24    64    63    1
    25     5     2    1
    26     5     6    1
    27     2     3    1
    28    67    68    1
    29     8     6   ar
    30     8    10   ar
    31     6     7   ar
    32     4     3    2
    33     3    13   am
    34    52    50   ar
    35    52    53   ar
    36    10    11   ar
    37    58    57    2
    38    54    53    1
    39     7     9   ar
    40    13    14    1
    41    50    48   ar
    42    53    51   ar
    43    11     9   ar
    44    11    12    1
    45    61    59    1
    46    57    56    1
    47    14    15    1
    48    14    17    1
    49    19    17    1
    50    48    47    1
    51    48    49   ar
    52    51    49   ar
    53    15    16    2
    54    56    59    1
    55    56    55    1
    56    39    36    1
    57    39    40    1
    58    17    18    1
    59    59    60    1
    60    47    44    1
    61    36    37    1
    62    36    35    1
    63    43    44    1
    64    43    37   am
    65    60    62    1
    66    40    42   am
    67    40    41    2
    68    44    45    1
    69    37    38    2
    70    34    33    2
    71    35    33   am
    72    33    32    1
    73    45    46    2
    74    32    31    1
    75    27    29   ar
    76    27    25   ar
    77    29    30   ar
    78    24    25    1
    79    24    21    1
    80    23    22    2
    81    25    26   ar
    82    22    21    1
    83    30    28   ar
    84    21    20    1
    85    26    28   ar
