@<TRIPOS>MOLECULE
tmp/2p8oC00.pdb
 102 101 0 0 0
SMALL
GASTEIGER

@<TRIPOS>ATOM
      1  N         19.2090    5.6310   45.6580 N.3    39  SER39      -0.1202
      2  CA        20.5370    5.4940   45.0810 C.3    39  SER39       0.2020
      3  C         20.4900    4.9200   43.6840 C.2    39  SER39       0.2619
      4  O         19.7370    3.9640   43.4400 O.2    39  SER39      -0.2717
      5  CB        21.3940    4.5760   45.9680 C.3    39  SER39       0.2103
      6  OG        22.7020    4.4730   45.4300 O.3    39  SER39      -0.2182
      7  N         21.3160    5.4770   42.7780 N.am   40  SER40      -0.1937
      8  CA        21.5590    4.7220   41.5250 C.3    40  SER40       0.2055
      9  C         22.2680    3.4190   41.8870 C.2    40  SER40       0.2643
     10  O         22.7850    3.3050   43.0170 O.2    40  SER40      -0.2714
     11  CB        22.3810    5.5340   40.5330 C.3    40  SER40       0.2130
     12  OG        21.6430    6.6680   40.0640 O.3    40  SER40      -0.2179
     13  N         22.2980    2.4520   40.9670 N.am   41  CYS41      -0.1953
     14  CA        22.9120    1.1700   41.3760 C.3    41  CYS41       0.1843
     15  C         23.3600    0.4350   40.1200 C.2    41  CYS41       0.2625
     16  O         23.1490    0.9380   39.0120 O.2    41  CYS41      -0.2714
     17  CB        21.9060    0.3930   42.2270 C.3    41  CYS41       0.0997
     18  SG        22.6050   -0.9800   43.2010 S.3    41  CYS41      -0.0797
     19  N         23.9880   -0.7270   40.2390 N.am   42  MET42      -0.1963
     20  CA        24.5320   -1.3630   39.0500 C.3    42  MET42       0.1736
     21  C         23.5030   -1.5950   37.9590 C.2    42  MET42       0.2617
     22  O         22.4420   -2.0850   38.2840 O.2    42  MET42      -0.2715
     23  CB        25.1660   -2.7110   39.4580 C.3    42  MET42       0.0427
     24  CG        26.4880   -2.4420   40.1670 C.3    42  MET42       0.0599
     25  SD        26.2550   -2.0240   41.9050 S.3    42  MET42      -0.1393
     26  CE        25.4030   -3.4560   42.5070 C.3    42  MET42       0.0692
     27  N         23.8280   -1.1650   36.7480 N.am   43  GLY43      -0.1955
     28  CA        22.9920   -1.2280   35.5680 C.3    43  GLY43       0.1869
     29  C         22.3830    0.1350   35.2570 C.2    43  GLY43       0.2309
     30  O         21.7750    0.3500   34.2090 O.2    43  GLY43      -0.2863
     31  N         24.2860    2.8780   35.3080 N.3    45  SER45      -0.1217
     32  CA        25.4250    3.5570   34.7170 C.3    45  SER45       0.1889
     33  C         25.1470    4.0300   33.3070 C.2    45  SER45       0.2288
     34  O         24.6320    3.3090   32.4760 O.2    45  SER45      -0.2866
     35  CB        26.6360    2.6060   34.6620 C.3    45  SER45       0.2089
     36  OG        27.4020    2.7100   35.8430 O.3    45  SER45      -0.2183
     37  N         24.9530    8.9520   34.8990 N.3    63  VAL63      -0.1231
     38  CA        25.2230    8.0690   36.0490 C.3    63  VAL63       0.1692
     39  C         26.6450    7.5420   35.9380 C.2    63  VAL63       0.2593
     40  O         26.9470    6.9300   34.9230 O.2    63  VAL63      -0.2718
     41  CB        24.1950    6.9220   36.1510 C.3    63  VAL63       0.0266
     42  CG1       24.4930    6.0520   37.3570 C.3    63  VAL63       0.0020
     43  CG2       22.7960    7.5210   36.2730 C.3    63  VAL63       0.0020
     44  N         27.4700    7.8080   36.9540 N.am   64  SER64      -0.1938
     45  CA        28.9040    7.5410   36.7520 C.3    64  SER64       0.2055
     46  C         29.4600    6.5810   37.7950 C.2    64  SER64       0.2643
     47  O         29.9040    5.4870   37.4070 O.2    64  SER64      -0.2714
     48  CB        29.6600    8.8740   36.7690 C.3    64  SER64       0.2130
     49  OG        31.0500    8.5980   36.5630 O.3    64  SER64      -0.2179
     50  N         29.4490    6.9010   39.0820 N.am   65  TRP65      -0.1959
     51  CA        29.9510    5.9240   40.0430 C.3    65  TRP65       0.1771
     52  C         29.4510    6.2700   41.4320 C.2    65  TRP65       0.2620
     53  O         28.9760    7.3870   41.6290 O.2    65  TRP65      -0.2715
     54  CB        31.4820    5.8960   40.0260 C.3    65  TRP65       0.0590
     55  CG        32.1730    7.1770   40.3810 C.ar   65  TRP65       0.0006
     56  CD1       32.5130    8.1850   39.5310 C.ar   65  TRP65       0.0946
     57  CD2       32.6200    7.5850   41.6810 C.ar   65  TRP65       0.0152
     58  NE1       33.1420    9.2080   40.2050 N.ar   65  TRP65      -0.2442
     59  CE2       33.2140    8.8460   41.5420 C.ar   65  TRP65       0.0810
     60  CE3       32.5760    7.0050   42.9530 C.ar   65  TRP65       0.0012
     61  CZ2       33.7580    9.5510   42.6210 C.ar   65  TRP65       0.0191
     62  CZ3       33.1170    7.7050   44.0110 C.ar   65  TRP65       0.0001
     63  CH2       33.7090    8.9720   43.8550 C.ar   65  TRP65       0.0015
     64  N         29.5460    5.3500   42.3740 N.am   66  GLY66      -0.1940
     65  CA        29.1080    5.6320   43.7380 C.3    66  GLY66       0.2014
     66  C         29.4570    4.4310   44.6230 C.2    66  GLY66       0.2639
     67  O         30.3370    3.6310   44.2800 O.2    66  GLY66      -0.2714
     68  N         28.7370    4.3530   45.7250 N.am   67  SER67      -0.1949
     69  CA        28.8370    3.3090   46.7300 C.3    67  SER67       0.1924
     70  C         28.6930    1.9250   46.1240 C.2    67  SER67       0.2314
     71  O         27.7780    1.5930   45.3800 O.2    67  SER67      -0.2863
     72  CB        27.7470    3.5390   47.7840 C.3    67  SER67       0.2116
     73  OG        27.4120    2.3550   48.4960 O.3    67  SER67      -0.2180
     74  N         25.4310    0.5700   46.8700 N.3    70  CYS70      -0.1235
     75  CA        24.3060    1.4490   46.5340 C.3    70  CYS70       0.1677
     76  C         23.6380    2.0150   47.7790 C.2    70  CYS70       0.2270
     77  O         22.4090    2.0820   47.8720 O.2    70  CYS70      -0.2867
     78  CB        23.2890    0.6770   45.6730 C.3    70  CYS70       0.0956
     79  SG        24.1130   -0.1200   44.2760 S.3    70  CYS70      -0.0801
     80  N         25.5400    9.7260   45.1800 N.3    76  GLY76      -0.1210
     81  CA        25.9960    9.1120   43.9250 C.3    76  GLY76       0.1956
     82  C         26.7880   10.1610   43.1550 C.2    76  GLY76       0.2612
     83  O         26.6200   11.3690   43.3910 O.2    76  GLY76      -0.2717
     84  N         27.6520    9.7160   42.2460 N.am   77  VAL77      -0.1965
     85  CA        28.4680   10.6150   41.4360 C.3    77  VAL77       0.1727
     86  C         28.1360   10.4880   39.9540 C.2    77  VAL77       0.2616
     87  O         27.9630    9.4070   39.4020 O.2    77  VAL77      -0.2715
     88  CB        29.9710   10.3490   41.6670 C.3    77  VAL77       0.0290
     89  CG1       30.7770   11.4970   41.0620 C.3    77  VAL77       0.0023
     90  CG2       30.2210   10.1780   43.1610 C.3    77  VAL77       0.0023
     91  N         27.9610   11.6530   39.3220 N.am   78  TYR78      -0.1974
     92  CA        27.4500   11.7630   37.9720 C.3    78  TYR78       0.1639
     93  C         28.4450   12.5570   37.1430 C.2    78  TYR78       0.2290
     94  O         29.0720   13.4850   37.6610 O.2    78  TYR78      -0.2864
     95  CB        26.0460   12.4200   38.0300 C.3    78  TYR78       0.0560
     96  CG        25.0470   11.5590   38.7810 C.ar   78  TYR78      -0.0198
     97  CD1       25.0510   11.5530   40.1740 C.ar   78  TYR78      -0.0009
     98  CD2       24.0970   10.7710   38.1490 C.ar   78  TYR78      -0.0009
     99  CE1       24.1670   10.8000   40.9160 C.ar   78  TYR78       0.0417
    100  CE2       23.2030    9.9920   38.8770 C.ar   78  TYR78       0.0417
    101  CZ        23.2530   10.0230   40.2480 C.ar   78  TYR78       0.1957
    102  OH        22.4040    9.2700   41.0160 O.3    78  TYR78      -0.2866
@<TRIPOS>BOND
     1    34    33    2
     2    33    32    1
     3    30    29    2
     4    35    32    1
     5    35    36    1
     6    32    31    1
     7    37    38    1
     8    40    39    2
     9    29    28    1
    10    28    27    1
    11    39    38    1
    12    39    44   am
    13    38    41    1
    14    41    43    1
    15    41    42    1
    16    49    48    1
    17    27    21   am
    18    45    48    1
    19    45    44    1
    20    45    46    1
    21    93    94    2
    22    93    92    1
    23    47    46    2
    24    46    50   am
    25    21    22    2
    26    21    20    1
    27    92    95    1
    28    92    91    1
    29    95    96    1
    30    98    96   ar
    31    98   100   ar
    32    96    97   ar
    33   100   101   ar
    34    16    15    2
    35    20    23    1
    36    20    19    1
    37    50    51    1
    38    91    86   am
    39    87    86    2
    40    23    24    1
    41    56    58   ar
    42    56    55   ar
    43    86    85    1
    44    54    51    1
    45    54    55    1
    46    51    52    1
    47    12    11    1
    48    15    19   am
    49    15    14    1
    50    24    25    1
    51    97    99   ar
    52    58    59   ar
    53   101    99   ar
    54   101   102    1
    55    55    57   ar
    56    11     8    1
    57    13    14    1
    58    13     9   am
    59    89    88    1
    60    14    17    1
    61    52    53    2
    62    52    64   am
    63    85    88    1
    64    85    84    1
    65     8     9    1
    66     8     7    1
    67    59    57   ar
    68    59    61   ar
    69    88    90    1
    70    57    60   ar
    71     9    10    2
    72    25    26    1
    73    17    18    1
    74    84    82   am
    75    64    65    1
    76    61    63   ar
    77     7     3   am
    78    60    62   ar
    79    82    83    2
    80    82    81    1
    81    18    79    1
    82     4     3    2
    83     3     2    1
    84    65    66    1
    85    63    62   ar
    86    81    80    1
    87    79    78    1
    88    67    66    2
    89    66    68   am
    90     2     1    1
    91     2     5    1
    92    71    70    2
    93     6     5    1
    94    78    75    1
    95    68    69    1
    96    70    69    1
    97    75    74    1
    98    75    76    1
    99    69    72    1
   100    76    77    2
   101    72    73    1
