@<TRIPOS>MOLECULE
tmp/2p8sB07.pdb
 167 164 0 0 0
SMALL
GASTEIGER

@<TRIPOS>ATOM
      1  N         -1.2130   58.5690   27.2870 N.3    87  ARG87      -0.1231
      2  CA        -2.4510   58.0400   27.8420 C.3    87  ARG87       0.1694
      3  C         -3.4720   57.6090   26.7780 C.2    87  ARG87       0.2592
      4  O         -4.0990   56.5570   26.9060 O.2    87  ARG87      -0.2718
      5  CB        -3.0850   59.0540   28.7840 C.3    87  ARG87       0.0321
      6  CG        -4.2180   58.4710   29.6080 C.3    87  ARG87       0.0489
      7  CD        -4.9270   59.5430   30.4360 C.3    87  ARG87       0.2205
      8  NE        -4.0910   60.1180   31.4890 N.pl3  87  ARG87      -0.0865
      9  CZ        -4.0290   59.6690   32.7400 C.cat  87  ARG87       0.5346
     10  NH1       -4.7530   58.6150   33.1140 N.pl3  87  ARG87       0.1354
     11  NH2       -3.2680   60.2940   33.6320 N.pl3  87  ARG87       0.1354
     12  N         -3.6310   58.4130   25.7320 N.am   88  HIS88      -0.1976
     13  CA        -4.5890   58.0990   24.6780 C.3    88  HIS88       0.1656
     14  C         -3.9420   57.7980   23.3300 C.2    88  HIS88       0.2291
     15  O         -4.4920   57.0280   22.5290 O.2    88  HIS88      -0.2864
     16  CB        -5.5560   59.2720   24.5080 C.3    88  HIS88       0.0771
     17  CG        -6.1590   59.7430   25.7970 C.ar   88  HIS88       0.0820
     18  ND1       -7.0780   59.0000   26.5020 N.ar   88  HIS88      -0.2267
     19  CD2       -5.9470   60.8690   26.5180 C.ar   88  HIS88       0.1154
     20  CE1       -7.4100   59.6490   27.6060 C.ar   88  HIS88       0.1986
     21  NE2       -6.7380   60.7850   27.6390 N.ar   88  HIS88      -0.2212
     22  N         -3.1620   65.1540   27.1210 N.3   167  GLU167     -0.1231
     23  CA        -3.3690   64.8320   28.5250 C.3   167  GLU167      0.1699
     24  C         -4.3190   65.7290   29.3160 C.2   167  GLU167      0.2592
     25  O         -5.1820   65.2400   30.0250 O.2   167  GLU167     -0.2718
     26  CB        -2.0230   64.8130   29.2530 C.3   167  GLU167      0.0402
     27  CG        -2.1280   64.6680   30.7710 C.3   167  GLU167      0.1161
     28  CD        -2.3900   63.2360   31.2090 C.2   167  GLU167      0.3649
     29  OE1       -2.5470   62.3520   30.3290 O.co2 167  GLU167     -0.2457
     30  OE2       -2.4330   62.9990   32.4380 O.co2 167  GLU167     -0.2457
     31  N         -4.1740   67.0360   29.1860 N.am  168  GLU168     -0.1979
     32  CA        -4.9650   67.9590   29.9960 C.3   168  GLU168      0.1602
     33  C         -6.1260   68.7250   29.3650 C.2   168  GLU168      0.2287
     34  O         -6.9410   69.2880   30.0850 O.2   168  GLU168     -0.2864
     35  CB        -4.0120   68.9880   30.6190 C.3   168  GLU168      0.0415
     36  CG        -2.6840   68.4010   31.0950 C.3   168  GLU168      0.1163
     37  CD        -2.8190   67.6030   32.3920 C.2   168  GLU168      0.3649
     38  OE1       -3.9630   67.2550   32.7680 O.co2 168  GLU168     -0.2457
     39  OE2       -1.7810   67.3170   33.0250 O.co2 168  GLU168     -0.2457
     40  N         -8.1190   65.0560   26.4150 N.3   171  SER171     -0.1217
     41  CA        -8.1930   63.6610   26.8640 C.3   171  SER171      0.1889
     42  C         -8.3560   62.7510   25.6570 C.2   171  SER171      0.2288
     43  O         -9.0790   61.7460   25.6890 O.2   171  SER171     -0.2866
     44  CB        -9.3610   63.4390   27.8230 C.3   171  SER171      0.2089
     45  OG        -9.0550   63.9520   29.1150 O.3   171  SER171     -0.2183
     46  N        -12.6820   69.7990   35.1610 N.3   319  PHE319     -0.1227
     47  CA       -11.3140   69.6900   34.6440 C.3   319  PHE319      0.1736
     48  C        -11.1590   70.5400   33.3810 C.2   319  PHE319      0.2595
     49  O        -10.0440   70.7390   32.8860 O.2   319  PHE319     -0.2718
     50  CB       -10.9630   68.2350   34.3280 C.3   319  PHE319      0.0547
     51  CG       -10.7720   67.3760   35.5520 C.ar  319  PHE319     -0.0202
     52  CD1       -9.5800   67.4180   36.2700 C.ar  319  PHE319     -0.0042
     53  CD2      -11.7950   66.5470   36.0020 C.ar  319  PHE319     -0.0042
     54  CE1       -9.4040   66.6360   37.4240 C.ar  319  PHE319     -0.0003
     55  CE2      -11.6320   65.7640   37.1500 C.ar  319  PHE319     -0.0003
     56  CZ       -10.4310   65.8130   37.8650 C.ar  319  PHE319     -0.0000
     57  N        -12.2850   71.0370   32.8690 N.am  320  ARG320     -0.1980
     58  CA       -12.3200   71.8630   31.6620 C.3   320  ARG320      0.1597
     59  C        -13.7680   72.3070   31.4830 C.2   320  ARG320      0.2287
     60  O        -14.6800   71.6590   32.0010 O.2   320  ARG320     -0.2864
     61  CB       -11.9040   71.0250   30.4490 C.3   320  ARG320      0.0334
     62  CG       -12.8530   69.8730   30.2290 C.3   320  ARG320      0.0492
     63  CD       -12.3540   68.8370   29.2510 C.3   320  ARG320      0.2205
     64  NE       -12.3950   69.3040   27.8700 N.pl3 320  ARG320     -0.0865
     65  CZ       -12.7550   68.5350   26.8450 C.cat 320  ARG320      0.5346
     66  NH1      -13.1040   67.2670   27.0680 N.pl3 320  ARG320      0.1354
     67  NH2      -12.7630   69.0260   25.6060 N.pl3 320  ARG320      0.1354
     68  N         -5.6690   59.8390   47.2790 N.3   509  TYR509     -0.1241
     69  CA        -5.4730   60.4560   45.9680 C.3   509  TYR509      0.1605
     70  C         -5.5920   61.9510   46.2870 C.2   509  TYR509      0.2264
     71  O         -4.5890   62.6670   46.2920 O.2   509  TYR509     -0.2867
     72  CB        -6.5080   60.0180   44.9280 C.3   509  TYR509      0.0534
     73  CG        -6.1250   60.5620   43.5680 C.ar  509  TYR509     -0.0201
     74  CD1       -6.8250   61.6170   43.0010 C.ar  509  TYR509     -0.0009
     75  CD2       -4.9580   60.1160   42.9200 C.ar  509  TYR509     -0.0009
     76  CE1       -6.3840   62.2340   41.8330 C.ar  509  TYR509      0.0417
     77  CE2       -4.5000   60.7250   41.7460 C.ar  509  TYR509      0.0417
     78  CZ        -5.2230   61.7950   41.2090 C.ar  509  TYR509      0.1957
     79  OH        -4.7610   62.4580   40.0850 O.3   509  TYR509     -0.2866
     80  N          0.7140   58.9800   42.0690 N.3   592  SER592     -0.1202
     81  CA         0.5080   60.2140   41.3160 C.3   592  SER592      0.2020
     82  C          0.1800   61.3990   42.2460 C.2   592  SER592      0.2618
     83  O          0.9990   61.7560   43.0930 O.2   592  SER592     -0.2717
     84  CB        -0.6230   59.9670   40.3000 C.3   592  SER592      0.2103
     85  OG        -0.7000   61.0010   39.3480 O.3   592  SER592     -0.2182
     86  N         -0.9840   62.0300   42.0870 N.am  593  TYR593     -0.1975
     87  CA        -1.3180   63.1400   42.9830 C.3   593  TYR593      0.1639
     88  C         -1.3490   62.5580   44.3880 C.2   593  TYR593      0.2290
     89  O         -1.0090   63.2390   45.3560 O.2   593  TYR593     -0.2864
     90  CB        -2.6770   63.7720   42.6490 C.3   593  TYR593      0.0560
     91  CG        -2.9000   65.1300   43.3190 C.ar  593  TYR593     -0.0198
     92  CD1       -3.1640   65.2200   44.6910 C.ar  593  TYR593     -0.0009
     93  CD2       -2.8230   66.3210   42.5810 C.ar  593  TYR593     -0.0009
     94  CE1       -3.3460   66.4420   45.3180 C.ar  593  TYR593      0.0417
     95  CE2       -3.0020   67.5670   43.1940 C.ar  593  TYR593      0.0417
     96  CZ        -3.2660   67.6240   44.5710 C.ar  593  TYR593      0.1957
     97  OH        -3.4250   68.8530   45.2020 O.3   593  TYR593     -0.2866
     98  N          4.2840   63.8140   42.5400 N.3   618  VAL618     -0.1245
     99  CA         4.6950   65.1470   42.1280 C.3   618  VAL618      0.1561
    100  C          5.4530   65.5870   43.3910 C.2   618  VAL618      0.2260
    101  O          5.0520   65.2170   44.4920 O.2   618  VAL618     -0.2867
    102  CB         3.4790   66.0680   41.9070 C.3   618  VAL618      0.0252
    103  CG1        3.8940   67.5570   41.9310 C.3   618  VAL618      0.0019
    104  CG2        2.8350   65.7250   40.5760 C.3   618  VAL618      0.0019
    105  N          5.3880   71.6970   42.2430 N.3   621  TRP621     -0.1241
    106  CA         4.5210   72.0740   41.1480 C.3   621  TRP621      0.1605
    107  C          5.1430   72.6810   39.8990 C.2   621  TRP621      0.2264
    108  O          4.5730   72.5470   38.8120 O.2   621  TRP621     -0.2867
    109  CB         3.3610   72.9040   41.6850 C.3   621  TRP621      0.0550
    110  CG         2.4460   72.0130   42.4930 C.ar  621  TRP621      0.0003
    111  CD1        2.2700   72.0190   43.8620 C.ar  621  TRP621      0.0946
    112  CD2        1.6930   70.8920   42.0020 C.ar  621  TRP621      0.0152
    113  NE1        1.4590   70.9710   44.2400 N.ar  621  TRP621     -0.2442
    114  CE2        1.0840   70.2740   43.1270 C.ar  621  TRP621      0.0810
    115  CE3        1.4570   70.3630   40.7250 C.ar  621  TRP621      0.0012
    116  CZ2        0.2770   69.1290   43.0040 C.ar  621  TRP621      0.0191
    117  CZ3        0.6510   69.2210   40.6080 C.ar  621  TRP621      0.0001
    118  CH2        0.0660   68.6280   41.7400 C.ar  621  TRP621      0.0015
    119  N          5.5990   70.0390   37.1470 N.3   624  TYR624     -0.1241
    120  CA         4.4610   69.4790   36.4410 C.3   624  TYR624      0.1605
    121  C          4.0090   70.3560   35.2590 C.2   624  TYR624      0.2264
    122  O          4.4700   71.4910   35.1020 O.2   624  TYR624     -0.2867
    123  CB         3.3050   69.2100   37.4120 C.3   624  TYR624      0.0534
    124  CG         2.3840   68.1450   36.8810 C.ar  624  TYR624     -0.0201
    125  CD1        2.8950   66.9170   36.4470 C.ar  624  TYR624     -0.0009
    126  CD2        1.0180   68.3860   36.7290 C.ar  624  TYR624     -0.0009
    127  CE1        2.0700   65.9630   35.8670 C.ar  624  TYR624      0.0417
    128  CE2        0.1820   67.4410   36.1450 C.ar  624  TYR624      0.0417
    129  CZ         0.7090   66.2400   35.7140 C.ar  624  TYR624      0.1957
    130  OH        -0.1080   65.3420   35.0720 O.3   624  TYR624     -0.2866
    131  N         -2.5530   71.6790   33.5910 N.3   628  TYR628     -0.1241
    132  CA        -3.0930   71.1540   34.8360 C.3   628  TYR628      0.1605
    133  C         -2.6830   71.9960   36.0450 C.2   628  TYR628      0.2264
    134  O         -3.5370   72.4660   36.8050 O.2   628  TYR628     -0.2867
    135  CB        -2.6430   69.6990   35.0490 C.3   628  TYR628      0.0534
    136  CG        -3.1360   69.0910   36.3620 C.ar  628  TYR628     -0.0201
    137  CD1       -2.4530   69.3180   37.5680 C.ar  628  TYR628     -0.0009
    138  CD2       -4.2820   68.2900   36.3970 C.ar  628  TYR628     -0.0009
    139  CE1       -2.8980   68.7430   38.7850 C.ar  628  TYR628      0.0417
    140  CE2       -4.7460   67.7160   37.6030 C.ar  628  TYR628      0.0417
    141  CZ        -4.0450   67.9430   38.7860 C.ar  628  TYR628      0.1957
    142  OH        -4.4710   67.3480   39.9490 O.3   628  TYR628     -0.2866
    143  N          4.8410   61.6600   32.1600 N.3   672  ASN672     -0.1225
    144  CA         3.8270   62.4990   32.7990 C.3   672  ASN672      0.1785
    145  C          4.3940   63.1890   34.0640 C.2   672  ASN672      0.2597
    146  O          4.5570   64.4090   34.0900 O.2   672  ASN672     -0.2718
    147  CB         2.6170   61.5950   33.1100 C.3   672  ASN672      0.1169
    148  CG         1.3530   62.3700   33.3830 C.2   672  ASN672      0.2627
    149  OD1        1.3670   63.3740   34.0980 O.2   672  ASN672     -0.2716
    150  ND2        0.2380   61.9030   32.8260 N.am  672  ASN672     -0.0877
    151  N          4.6550   62.4170   35.1160 N.am  673  VAL673     -0.1980
    152  CA         5.2860   62.9570   36.3180 C.3   673  VAL673      0.1595
    153  C          6.7160   62.4700   36.1020 C.2   673  VAL673      0.2287
    154  O          7.0180   61.2960   36.3050 O.2   673  VAL673     -0.2864
    155  CB         4.6910   62.3420   37.6110 C.3   673  VAL673      0.0276
    156  CG1        5.4550   62.8420   38.8360 C.3   673  VAL673      0.0022
    157  CG2        3.2110   62.7220   37.7210 C.3   673  VAL673      0.0022
    158  N          4.1050   56.3960   33.7980 N.3   702  HIS702     -0.1241
    159  CA         3.2800   56.7710   34.9250 C.3   702  HIS702      0.1621
    160  C          2.3510   55.6760   35.4260 C.2   702  HIS702      0.2264
    161  O          1.9530   55.6830   36.5950 O.2   702  HIS702     -0.2867
    162  CB         2.4540   58.0120   34.6110 C.3   702  HIS702      0.0745
    163  CG         1.9800   58.7140   35.8430 C.ar  702  HIS702      0.0817
    164  ND1        2.8420   59.0790   36.8520 N.ar  702  HIS702     -0.2268
    165  CD2        0.7450   59.0900   36.2410 C.ar  702  HIS702      0.1154
    166  CE1        2.1560   59.6570   37.8250 C.ar  702  HIS702      0.1986
    167  NE2        0.8840   59.6750   37.4800 N.ar  702  HIS702     -0.2212
@<TRIPOS>BOND
     1    15    14    2
     2    14    13    1
     3    16    13    1
     4    16    17    1
     5    13    12    1
     6    67    65    1
     7    42    43    2
     8    42    41    1
     9    12     3   am
    10    17    18   ar
    11    17    19   ar
    12    40    41    1
    13    18    20   ar
    14    19    21   ar
    15     3     4    2
    16     3     2    1
    17    65    66    1
    18    65    64    2
    19    41    44    1
    20    22    23    1
    21     1     2    1
    22    20    21   ar
    23    44    45    1
    24     2     5    1
    25    64    63    1
    26    23    26    1
    27    23    24    1
    28     5     6    1
    29    31    24   am
    30    31    32    1
    31    63    62    1
    32    26    27    1
    33    24    25    2
    34    33    32    1
    35    33    34    2
    36     6     7    1
    37    32    35    1
    38    62    61    1
    39    29    28   ar
    40     7     8    1
    41    61    58    1
    42    35    36    1
    43    27    28    1
    44    36    37    1
    45    28    30   ar
    46    59    58    1
    47    59    60    2
    48     8     9    2
    49    58    57    1
    50   143   144    1
    51    37    38   ar
    52    37    39   ar
    53     9    10    1
    54     9    11    1
    55   144   147    1
    56   144   145    1
    57   150   148   am
    58    57    48   am
    59    49    48    2
    60   147   148    1
    61    48    47    1
    62   148   149    2
    63   131   132    1
    64   158   159    1
    65   145   146    2
    66   145   151   am
    67    50    47    1
    68    50    51    1
    69   162   159    1
    70   162   163    1
    71    47    46    1
    72   132   135    1
    73   132   133    1
    74   159   160    1
    75   135   136    1
    76   130   129    1
    77   122   121    2
    78   151   152    1
    79   121   120    1
    80   160   161    2
    81    51    53   ar
    82    51    52   ar
    83   129   127   ar
    84   129   128   ar
    85   163   165   ar
    86   163   164   ar
    87   127   125   ar
    88    53    55   ar
    89   133   134    2
    90   153   154    2
    91   153   152    1
    92   128   126   ar
    93   165   167   ar
    94    52    54   ar
    95   152   155    1
    96   136   138   ar
    97   136   137   ar
    98   138   140   ar
    99   120   119    1
   100   120   123    1
   101   125   124   ar
   102   126   124   ar
   103   164   166   ar
   104   124   123    1
   105    55    56   ar
   106    54    56   ar
   107   167   166   ar
   108   137   139   ar
   109   140   141   ar
   110   155   157    1
   111   155   156    1
   112   139   141   ar
   113   141   142    1
   114   108   107    2
   115    85    84    1
   116   107   106    1
   117    79    78    1
   118    84    81    1
   119   104   102    1
   120   117   115   ar
   121   117   118   ar
   122   115   112   ar
   123   106   109    1
   124   106   105    1
   125    78    77   ar
   126    78    76   ar
   127    81    80    1
   128    81    82    1
   129   109   110    1
   130   118   116   ar
   131    77    75   ar
   132    76    74   ar
   133   102   103    1
   134   102    99    1
   135   112   110   ar
   136   112   114   ar
   137    86    82   am
   138    86    87    1
   139    99    98    1
   140    99   100    1
   141    82    83    2
   142   110   111   ar
   143    93    95   ar
   144    93    91   ar
   145    90    87    1
   146    90    91    1
   147    75    73   ar
   148    87    88    1
   149    74    73   ar
   150   116   114   ar
   151   114   113   ar
   152    95    96   ar
   153    91    92   ar
   154   100   101    2
   155    73    72    1
   156   111   113   ar
   157    88    89    2
   158    96    97    1
   159    96    94   ar
   160    92    94   ar
   161    72    69    1
   162    69    70    1
   163    69    68    1
   164    70    71    2
