@<TRIPOS>MOLECULE
tmp/2p8wA00.pdb
 125 124 0 0 0
SMALL
GASTEIGER

@<TRIPOS>ATOM
      1  N        -21.4720   45.7110  -66.1300 N.3    25  HIS25      -0.1226
      2  CA       -21.2490   44.4250  -65.4820 C.3    25  HIS25       0.1752
      3  C        -19.9520   44.6160  -64.6850 C.2    25  HIS25       0.2596
      4  O        -19.0830   45.3930  -65.0990 O.2    25  HIS25      -0.2718
      5  CB       -21.0800   43.3480  -66.5620 C.3    25  HIS25       0.0759
      6  CG       -20.9350   41.9530  -66.0300 C.ar   25  HIS25       0.0818
      7  ND1      -19.9020   41.5720  -65.2000 N.ar   25  HIS25      -0.2268
      8  CD2      -21.6880   40.8440  -66.2260 C.ar   25  HIS25       0.1154
      9  CE1      -20.0270   40.2890  -64.9080 C.ar   25  HIS25       0.1986
     10  NE2      -21.1030   39.8250  -65.5160 N.ar   25  HIS25      -0.2212
     11  N        -19.8220   43.9340  -63.5450 N.am   26  VAL26      -0.1966
     12  CA       -18.6120   44.0590  -62.7180 C.3    26  VAL26       0.1727
     13  C        -17.3350   43.9160  -63.5340 C.2    26  VAL26       0.2616
     14  O        -17.2590   43.0930  -64.4440 O.2    26  VAL26      -0.2715
     15  CB       -18.5670   43.0020  -61.5700 C.3    26  VAL26       0.0290
     16  CG1      -19.0370   43.6320  -60.2610 C.3    26  VAL26       0.0023
     17  CG2      -19.4330   41.7950  -61.9230 C.3    26  VAL26       0.0023
     18  N        -16.3400   44.7330  -63.2050 N.am   27  ASP27      -0.1957
     19  CA       -15.0470   44.7040  -63.8830 C.3    27  ASP27       0.1840
     20  C        -15.0070   45.2640  -65.3000 C.2    27  ASP27       0.2622
     21  O        -13.9390   45.2830  -65.9240 O.2    27  ASP27      -0.2715
     22  CB       -14.4970   43.2810  -63.9080 C.3    27  ASP27       0.1450
     23  CG       -14.2610   42.7450  -62.5330 C.2    27  ASP27       0.3671
     24  OD1      -13.4320   43.3420  -61.8100 O.co2  27  ASP27      -0.2456
     25  OD2      -14.9110   41.7370  -62.1770 O.co2  27  ASP27      -0.2456
     26  N        -16.1440   45.7110  -65.8240 N.am   28  HIS28      -0.1959
     27  CA       -16.1250   46.2610  -67.1690 C.3    28  HIS28       0.1787
     28  C        -15.6070   47.6940  -67.2230 C.2    28  HIS28       0.2621
     29  O        -15.5400   48.2850  -68.2980 O.2    28  HIS28      -0.2715
     30  CB       -17.4950   46.1440  -67.8290 C.3    28  HIS28       0.0785
     31  CG       -17.8010   44.7620  -68.3220 C.ar   28  HIS28       0.0821
     32  ND1      -18.7350   44.5090  -69.3050 N.ar   28  HIS28      -0.2267
     33  CD2      -17.2900   43.5580  -67.9710 C.ar   28  HIS28       0.1154
     34  CE1      -18.7870   43.2100  -69.5380 C.ar   28  HIS28       0.1986
     35  NE2      -17.9200   42.6100  -68.7420 N.ar   28  HIS28      -0.2212
     36  N        -15.2330   48.2430  -66.0700 N.am   29  GLY29      -0.1940
     37  CA       -14.6760   49.5860  -66.0410 C.3    29  GLY29       0.2014
     38  C        -15.5910   50.7410  -65.7020 C.2    29  GLY29       0.2639
     39  O        -15.2830   51.8880  -66.0220 O.2    29  GLY29      -0.2714
     40  N        -16.7120   50.4560  -65.0550 N.am   30  LYS30      -0.1963
     41  CA       -17.6570   51.4970  -64.6720 C.3    30  LYS30       0.1728
     42  C        -17.0010   52.5660  -63.7960 C.2    30  LYS30       0.2617
     43  O        -17.2150   53.7600  -63.9930 O.2    30  LYS30      -0.2715
     44  CB       -18.8400   50.8600  -63.9430 C.3    30  LYS30       0.0311
     45  CG       -19.8120   51.8110  -63.2570 C.3    30  LYS30       0.0038
     46  CD       -21.0730   51.0290  -62.9230 C.3    30  LYS30       0.0206
     47  CE       -21.9310   51.6930  -61.8840 C.3    30  LYS30       0.1093
     48  NZ       -23.1180   50.8260  -61.6000 N.3    30  LYS30      -0.1314
     49  N        -16.1860   52.1350  -62.8440 N.am   31  SER31      -0.1936
     50  CA       -15.5140   53.0610  -61.9410 C.3    31  SER31       0.2055
     51  C        -14.4880   53.9740  -62.5930 C.2    31  SER31       0.2643
     52  O        -14.5350   55.1890  -62.3930 O.2    31  SER31      -0.2714
     53  CB       -14.8460   52.3010  -60.7990 C.3    31  SER31       0.2130
     54  OG       -15.8120   51.6830  -59.9730 O.3    31  SER31      -0.2179
     55  N        -13.5600   53.4030  -63.3610 N.am   32  THR32      -0.1950
     56  CA       -12.5250   54.2230  -63.9900 C.3    32  THR32       0.1897
     57  C        -13.1060   55.1740  -65.0250 C.2    32  THR32       0.2313
     58  O        -12.5220   56.2190  -65.3050 O.2    32  THR32      -0.2863
     59  CB       -11.4110   53.3710  -64.6550 C.3    32  THR32       0.1794
     60  OG1      -11.8540   52.9140  -65.9310 O.3    32  THR32      -0.2208
     61  CG2      -11.0710   52.1730  -63.7960 C.3    32  THR32       0.0378
     62  N        -15.9150   49.5110  -74.0850 N.3   138  ASN138     -0.1225
     63  CA       -14.7130   49.7630  -73.2830 C.3   138  ASN138      0.1785
     64  C        -13.5930   48.7120  -73.4000 C.2   138  ASN138      0.2597
     65  O        -13.7660   47.6740  -74.0510 O.2   138  ASN138     -0.2718
     66  CB       -15.1740   49.9160  -71.8190 C.3   138  ASN138      0.1169
     67  CG       -14.1110   50.4900  -70.9140 C.2   138  ASN138      0.2627
     68  OD1      -13.3360   51.3490  -71.3260 O.2   138  ASN138     -0.2716
     69  ND2      -14.0860   50.0370  -69.6600 N.am  138  ASN138     -0.0877
     70  N        -12.4470   48.9890  -72.7710 N.am  139  LYS139     -0.1980
     71  CA       -11.3150   48.0630  -72.7870 C.3   139  LYS139      0.1596
     72  C        -10.7870   47.7620  -74.1870 C.2   139  LYS139      0.2287
     73  O        -10.2580   46.6760  -74.4230 O.2   139  LYS139     -0.2864
     74  CB       -11.6950   46.7250  -72.1400 C.3   139  LYS139      0.0298
     75  CG       -11.2200   46.4910  -70.7110 C.3   139  LYS139      0.0038
     76  CD       -12.2090   47.0140  -69.6980 C.3   139  LYS139      0.0206
     77  CE       -12.4620   46.0050  -68.5750 C.3   139  LYS139      0.1093
     78  NZ       -11.2510   45.6850  -67.7890 N.3   139  LYS139     -0.1314
     79  N         -8.2130   48.8020  -75.5950 N.3   141  ASP141     -0.1225
     80  CA        -6.7610   48.6470  -75.5360 C.3   141  ASP141      0.1805
     81  C         -6.3300   47.1840  -75.4230 C.2   141  ASP141      0.2597
     82  O         -5.2570   46.8130  -75.8940 O.2   141  ASP141     -0.2718
     83  CB        -6.1950   49.4590  -74.3640 C.3   141  ASP141      0.1424
     84  CG        -6.6590   48.9380  -73.0090 C.2   141  ASP141      0.3668
     85  OD1       -5.9800   48.0640  -72.4300 O.co2 141  ASP141     -0.2456
     86  OD2       -7.7110   49.3950  -72.5240 O.co2 141  ASP141     -0.2456
     87  N         -7.1690   46.3590  -74.7990 N.am  142  ARG142     -0.1979
     88  CA        -6.8710   44.9430  -74.6430 C.3   142  ARG142      0.1597
     89  C         -6.7740   44.2440  -75.9950 C.2   142  ARG142      0.2287
     90  O         -5.8890   43.4180  -76.2180 O.2   142  ARG142     -0.2864
     91  CB        -7.9380   44.2510  -73.7940 C.3   142  ARG142      0.0334
     92  CG        -7.6890   44.3380  -72.2980 C.3   142  ARG142      0.0492
     93  CD        -7.9020   42.9770  -71.6320 C.3   142  ARG142      0.2205
     94  NE        -9.2490   42.8010  -71.0940 N.pl3 142  ARG142     -0.0865
     95  CZ        -9.6190   41.7520  -70.3680 C.cat 142  ARG142      0.5346
     96  NH1       -8.7380   40.7910  -70.1070 N.pl3 142  ARG142      0.1354
     97  NH2      -10.8560   41.6730  -69.8880 N.pl3 142  ARG142      0.1354
     98  N        -10.8870   53.2570  -74.2010 N.3   193  SER193     -0.1202
     99  CA       -10.2280   52.6420  -73.0570 C.3   193  SER193      0.2020
    100  C        -10.3080   53.5800  -71.8520 C.2   193  SER193      0.2619
    101  O         -9.6260   54.6070  -71.7900 O.2   193  SER193     -0.2717
    102  CB        -8.7630   52.3500  -73.3910 C.3   193  SER193      0.2103
    103  OG        -8.0530   51.9420  -72.2350 O.3   193  SER193     -0.2182
    104  N        -11.1530   53.2240  -70.8970 N.am  194  GLY194     -0.1942
    105  CA       -11.3060   54.0460  -69.7140 C.3   194  GLY194      0.2014
    106  C        -10.0490   54.1240  -68.8780 C.2   194  GLY194      0.2639
    107  O         -9.8300   55.1140  -68.1780 O.2   194  GLY194     -0.2714
    108  N         -9.2190   53.0880  -68.9460 N.am  195  LEU195     -0.1963
    109  CA        -7.9790   53.0450  -68.1780 C.3   195  LEU195      0.1728
    110  C         -6.9060   53.9460  -68.7740 C.2   195  LEU195      0.2616
    111  O         -6.1930   54.6280  -68.0430 O.2   195  LEU195     -0.2715
    112  CB        -7.4380   51.6170  -68.0940 C.3   195  LEU195      0.0311
    113  CG        -6.1110   51.4520  -67.3450 C.3   195  LEU195      0.0022
    114  CD1       -6.3430   51.5350  -65.8440 C.3   195  LEU195      0.0001
    115  CD2       -5.4930   50.1160  -67.7120 C.3   195  LEU195      0.0001
    116  N         -6.7790   53.9350  -70.0990 N.am  196  HIS196     -0.1973
    117  CA        -5.7870   54.7620  -70.7680 C.3   196  HIS196      0.1656
    118  C         -6.2810   56.1930  -70.9800 C.2   196  HIS196      0.2291
    119  O         -5.5030   57.0860  -71.3200 O.2   196  HIS196     -0.2864
    120  CB        -5.3900   54.1400  -72.1070 C.3   196  HIS196      0.0771
    121  CG        -4.5400   52.9150  -71.9700 C.ar  196  HIS196      0.0820
    122  ND1       -4.1330   52.4260  -70.7470 N.ar  196  HIS196     -0.2267
    123  CD2       -4.0240   52.0800  -72.9040 C.ar  196  HIS196      0.1154
    124  CE1       -3.4020   51.3410  -70.9310 C.ar  196  HIS196      0.1986
    125  NE2       -3.3200   51.1090  -72.2300 N.ar  196  HIS196     -0.2212
@<TRIPOS>BOND
     1    90    89    2
     2    89    88    1
     3    82    81    2
     4    79    80    1
     5    80    81    1
     6    80    83    1
     7    81    87   am
     8    87    88    1
     9    88    91    1
    10    73    72    2
    11    83    84    1
    12    98    99    1
    13    72    71    1
    14    62    63    1
    15    65    64    2
    16    91    92    1
    17    64    63    1
    18    64    70   am
    19   102    99    1
    20   102   103    1
    21    63    66    1
    22    99   100    1
    23    84    86   ar
    24    84    85   ar
    25   123   125   ar
    26   123   121   ar
    27    71    70    1
    28    71    74    1
    29    92    93    1
    30   125   124   ar
    31    74    75    1
    32   120   121    1
    33   120   117    1
    34   121   122   ar
    35   100   101    2
    36   100   104   am
    37    66    67    1
    38    93    94    1
    39    68    67    2
    40   119   118    2
    41    94    95    2
    42   118   117    1
    43   124   122   ar
    44    67    69   am
    45   104   105    1
    46   117   116    1
    47    75    76    1
    48    95    96    1
    49    95    97    1
    50   116   110   am
    51   105   106    1
    52    76    77    1
    53    34    32   ar
    54    34    35   ar
    55    32    31   ar
    56   108   106   am
    57   108   109    1
    58   106   107    2
    59   110   109    1
    60   110   111    2
    61    35    33   ar
    62    77    78    1
    63    31    33   ar
    64    31    30    1
    65    29    28    2
    66   109   112    1
    67   112   113    1
    68    30    27    1
    69   115   113    1
    70   113   114    1
    71    28    27    1
    72    28    36   am
    73    27    26    1
    74     5     6    1
    75     5     2    1
    76     8     6   ar
    77     8    10   ar
    78     1     2    1
    79    36    37    1
    80    37    38    1
    81     6     7   ar
    82    39    38    2
    83    60    59    1
    84    21    20    2
    85    26    20   am
    86    38    40   am
    87    10     9   ar
    88     2     3    1
    89    58    57    2
    90    20    19    1
    91     7     9   ar
    92     4     3    2
    93    40    41    1
    94    57    56    1
    95     3    11   am
    96    41    44    1
    97    41    42    1
    98    59    56    1
    99    59    61    1
   100    14    13    2
   101    43    42    2
   102    56    55    1
   103    44    45    1
   104    22    19    1
   105    22    23    1
   106    19    18    1
   107    42    49   am
   108    11    12    1
   109    13    18   am
   110    13    12    1
   111    55    51   am
   112    45    46    1
   113    46    47    1
   114    49    50    1
   115    12    15    1
   116    51    52    2
   117    51    50    1
   118    23    25   ar
   119    23    24   ar
   120    50    53    1
   121    17    15    1
   122    47    48    1
   123    15    16    1
   124    53    54    1
