@<TRIPOS>MOLECULE
tmp/2p93A00.pdb
 183 181 0 0 0
SMALL
GASTEIGER

@<TRIPOS>ATOM
      1  N         13.9160   47.4440   53.6890 N.3    42  HIS42      -0.1241
      2  CA        12.4560   47.4680   53.6740 C.3    42  HIS42       0.1621
      3  C         11.8390   48.8060   54.0840 C.2    42  HIS42       0.2264
      4  O         10.6410   49.0080   53.9230 O.2    42  HIS42      -0.2867
      5  CB        11.8770   46.3340   54.5400 C.3    42  HIS42       0.0745
      6  CG        11.7630   46.6580   55.9990 C.ar   42  HIS42       0.0817
      7  ND1       12.7480   46.3480   56.9130 N.ar   42  HIS42      -0.2268
      8  CD2       10.7630   47.2330   56.7090 C.ar   42  HIS42       0.1154
      9  CE1       12.3580   46.7120   58.1200 C.ar   42  HIS42       0.1986
     10  NE2       11.1560   47.2530   58.0250 N.ar   42  HIS42      -0.2212
     11  N         10.7620   41.3520   49.7380 N.3    82  LYS82      -0.1231
     12  CA         9.7180   41.4670   50.7520 C.3    82  LYS82       0.1693
     13  C          9.2350   40.0920   51.2130 C.2    82  LYS82       0.2592
     14  O          8.6480   39.9600   52.2860 O.2    82  LYS82      -0.2718
     15  CB         8.5290   42.2560   50.1900 C.3    82  LYS82       0.0285
     16  CG         7.4980   42.6630   51.2330 C.3    82  LYS82       0.0035
     17  CD         7.9140   43.9310   51.9710 C.3    82  LYS82       0.0206
     18  CE         7.4630   45.1930   51.2350 C.3    82  LYS82       0.1093
     19  NZ         7.9760   45.2890   49.8350 N.3    82  LYS82      -0.1314
     20  N          9.4910   39.0760   50.3920 N.am   83  GLU83      -0.1966
     21  CA         9.0690   37.7060   50.6780 C.3    83  GLU83       0.1733
     22  C          9.7760   37.0580   51.8690 C.2    83  GLU83       0.2617
     23  O          9.1520   36.3520   52.6540 O.2    83  GLU83      -0.2715
     24  CB         9.2760   36.8320   49.4360 C.3    83  GLU83       0.0429
     25  CG         8.4650   37.2510   48.2110 C.3    83  GLU83       0.1163
     26  CD         7.0120   36.8230   48.2870 C.2    83  GLU83       0.3649
     27  OE1        6.3080   37.2470   49.2280 O.co2  83  GLU83      -0.2457
     28  OE2        6.5700   36.0590   47.4010 O.co2  83  GLU83      -0.2457
     29  N         11.0760   37.3010   51.9950 N.am   84  THR84      -0.1937
     30  CA        11.8720   36.7180   53.0740 C.3    84  THR84       0.2028
     31  C         12.5040   37.7330   54.0230 C.2    84  THR84       0.2642
     32  O         12.8840   37.3860   55.1420 O.2    84  THR84      -0.2714
     33  CB        13.0140   35.8830   52.5020 C.3    84  THR84       0.1808
     34  OG1       13.8050   36.7110   51.6390 O.3    84  THR84      -0.2208
     35  CG2       12.4690   34.6950   51.7120 C.3    84  THR84       0.0379
     36  N         12.6170   38.9770   53.5680 N.am   85  TYR85      -0.1973
     37  CA        13.2300   40.0450   54.3510 C.3    85  TYR85       0.1639
     38  C         14.7110   39.7690   54.5690 C.2    85  TYR85       0.2290
     39  O         15.2940   40.2110   55.5570 O.2    85  TYR85      -0.2864
     40  CB        12.5270   40.2100   55.7010 C.3    85  TYR85       0.0560
     41  CG        11.5470   41.3580   55.7290 C.ar   85  TYR85      -0.0198
     42  CD1       10.4740   41.4100   54.8350 C.ar   85  TYR85      -0.0009
     43  CD2       11.6880   42.3950   56.6480 C.ar   85  TYR85      -0.0009
     44  CE1        9.5650   42.4680   54.8580 C.ar   85  TYR85       0.0417
     45  CE2       10.7860   43.4590   56.6790 C.ar   85  TYR85       0.0417
     46  CZ         9.7270   43.4870   55.7810 C.ar   85  TYR85       0.1957
     47  OH         8.8340   44.5320   55.8070 O.3    85  TYR85      -0.2866
     48  N          2.9980   46.9510   71.1950 N.3   135  GLU135     -0.1245
     49  CA         2.6900   46.4660   69.8540 C.3   135  GLU135      0.1567
     50  C          1.6360   47.2750   69.0960 C.2   135  GLU135      0.2260
     51  O          1.8920   47.7190   67.9930 O.2   135  GLU135     -0.2867
     52  CB         2.2760   44.9890   69.9020 C.3   135  GLU135      0.0388
     53  CG         1.9600   44.3880   68.5370 C.3   135  GLU135      0.1160
     54  CD         1.8110   42.8750   68.5800 C.2   135  GLU135      0.3649
     55  OE1        1.2420   42.3070   67.6210 O.co2 135  GLU135     -0.2457
     56  OE2        2.2720   42.2490   69.5630 O.co2 135  GLU135     -0.2457
     57  N          9.3240   31.8860   60.4920 N.3   162  PHE162     -0.1227
     58  CA         9.9070   32.4530   59.2780 C.3   162  PHE162      0.1736
     59  C         11.3790   32.0470   59.2980 C.2   162  PHE162      0.2595
     60  O         11.9940   32.0230   60.3500 O.2   162  PHE162     -0.2718
     61  CB         9.7930   33.9800   59.2830 C.3   162  PHE162      0.0547
     62  CG         8.3900   34.4910   59.1080 C.ar  162  PHE162     -0.0202
     63  CD1        7.7410   34.3820   57.8810 C.ar  162  PHE162     -0.0042
     64  CD2        7.7200   35.0960   60.1680 C.ar  162  PHE162     -0.0042
     65  CE1        6.4410   34.8720   57.7110 C.ar  162  PHE162     -0.0003
     66  CE2        6.4190   35.5900   60.0100 C.ar  162  PHE162     -0.0003
     67  CZ         5.7800   35.4770   58.7770 C.ar  162  PHE162     -0.0000
     68  N         11.9360   31.7270   58.1370 N.am  163  ILE163     -0.1980
     69  CA        13.3340   31.3150   58.0590 C.3   163  ILE163      0.1595
     70  C         14.3030   32.3810   58.5720 C.2   163  ILE163      0.2287
     71  O         14.2120   33.5420   58.2010 O.2   163  ILE163     -0.2864
     72  CB        13.7400   30.9900   56.6110 C.3   163  ILE163      0.0276
     73  CG1       12.8310   29.9020   56.0420 C.3   163  ILE163      0.0022
     74  CG2       15.2030   30.5560   56.5690 C.3   163  ILE163      0.0022
     75  CD1       12.9830   29.7000   54.5490 C.3   163  ILE163      0.0001
     76  N         11.3610   44.7590   73.8030 N.3   179  ASP179     -0.1225
     77  CA        11.7120   44.4020   72.4400 C.3   179  ASP179      0.1805
     78  C         11.6840   45.6680   71.6000 C.2   179  ASP179      0.2598
     79  O         11.2530   46.7250   72.0670 O.2   179  ASP179     -0.2718
     80  CB        10.6710   43.4040   71.9230 C.3   179  ASP179      0.1424
     81  CG        11.0330   42.7940   70.5840 C.2   179  ASP179      0.3668
     82  OD1       12.1310   43.0810   70.0530 O.co2 179  ASP179     -0.2456
     83  OD2       10.2030   42.0110   70.0650 O.co2 179  ASP179     -0.2456
     84  N         12.1750   45.5630   70.3710 N.am  180  ALA180     -0.1966
     85  CA        12.1340   46.6850   69.4550 C.3   180  ALA180      0.1728
     86  C         10.6810   46.6070   68.9960 C.2   180  ALA180      0.2616
     87  O          9.9590   45.7030   69.4060 O.2   180  ALA180     -0.2715
     88  CB        13.0840   46.4580   68.2850 C.3   180  ALA180      0.0334
     89  N         10.2420   47.5390   68.1630 N.am  181  CYS181     -0.1954
     90  CA         8.8590   47.5080   67.7110 C.3   181  CYS181      0.1843
     91  C          8.6830   48.3370   66.4480 C.2   181  CYS181      0.2625
     92  O          9.6380   48.9330   65.9460 O.2   181  CYS181     -0.2714
     93  CB         7.9440   48.0370   68.8210 C.3   181  CYS181      0.0997
     94  SG         6.1600   47.7550   68.5790 S.3   181  CYS181     -0.0797
     95  N          7.4520   48.3630   65.9450 N.am  182  GLN182     -0.1977
     96  CA         7.1020   49.1090   64.7430 C.3   182  GLN182      0.1601
     97  C          7.5960   50.5500   64.8360 C.2   182  GLN182      0.2287
     98  O          7.3340   51.2400   65.8130 O.2   182  GLN182     -0.2864
     99  CB         5.5820   49.0870   64.5570 C.3   182  GLN182      0.0394
    100  CG         5.0560   49.9460   63.4230 C.3   182  GLN182      0.0908
    101  CD         5.6170   49.5430   62.0790 C.2   182  GLN182      0.2608
    102  OE1        6.7930   49.7720   61.7840 O.2   182  GLN182     -0.2717
    103  NE2        4.7780   48.9290   61.2540 N.am  182  GLN182     -0.0878
    104  N         12.3880   50.1130   62.9320 N.3   185  SER185     -0.1217
    105  CA        13.0820   49.5180   61.7980 C.3   185  SER185      0.1889
    106  C         14.1930   50.3800   61.1890 C.2   185  SER185      0.2288
    107  O         14.0380   51.5740   61.0120 O.2   185  SER185     -0.2866
    108  CB        12.0720   49.1390   60.7070 C.3   185  SER185      0.2089
    109  OG        11.3650   47.9570   61.0500 O.3   185  SER185     -0.2183
    110  N         17.8620   47.0140   62.9950 N.3   203  VAL203     -0.1231
    111  CA        16.5360   46.5710   63.4180 C.3   203  VAL203      0.1692
    112  C         15.7930   46.1020   62.1550 C.2   203  VAL203      0.2593
    113  O         15.5330   46.8870   61.2820 O.2   203  VAL203     -0.2718
    114  CB        15.7510   47.7330   64.0600 C.3   203  VAL203      0.0266
    115  CG1       14.3830   47.2570   64.5000 C.3   203  VAL203      0.0020
    116  CG2       16.5180   48.2970   65.2510 C.3   203  VAL203      0.0020
    117  N         15.4390   44.8210   62.0770 N.am  204  SER204     -0.1938
    118  CA        14.7820   44.3030   60.8760 C.3   204  SER204      0.2055
    119  C         13.3130   43.8860   61.0110 C.2   204  SER204      0.2643
    120  O         12.4340   44.4640   60.3650 O.2   204  SER204     -0.2714
    121  CB        15.6020   43.1310   60.3250 C.3   204  SER204      0.2130
    122  OG        15.1910   42.7600   59.0180 O.3   204  SER204     -0.2179
    123  N         13.0400   42.8700   61.8220 N.am  205  TRP205     -0.1959
    124  CA        11.6610   42.4380   62.0010 C.3   205  TRP205      0.1771
    125  C         11.4150   41.5940   63.2470 C.2   205  TRP205      0.2620
    126  O         12.3260   41.2850   63.9950 O.2   205  TRP205     -0.2715
    127  CB        11.1750   41.6730   60.7700 C.3   205  TRP205      0.0590
    128  CG        11.9690   40.4580   60.4650 C.ar  205  TRP205      0.0006
    129  CD1       13.1370   40.3930   59.7640 C.ar  205  TRP205      0.0946
    130  CD2       11.6440   39.1160   60.8320 C.ar  205  TRP205      0.0152
    131  NE1       13.5600   39.0870   59.6670 N.ar  205  TRP205     -0.2442
    132  CE2       12.6580   38.2820   60.3150 C.ar  205  TRP205      0.0810
    133  CE3       10.5890   38.5330   61.5490 C.ar  205  TRP205      0.0012
    134  CZ2       12.6520   36.8950   60.4910 C.ar  205  TRP205      0.0191
    135  CZ3       10.5840   37.1470   61.7240 C.ar  205  TRP205      0.0001
    136  CH2       11.6060   36.3500   61.1960 C.ar  205  TRP205      0.0015
    137  N         10.1510   41.2350   63.4440 N.am  206  GLY206     -0.1940
    138  CA         9.7630   40.4330   64.5870 C.3   206  GLY206      0.2014
    139  C          8.2740   40.1500   64.5380 C.2   206  GLY206      0.2639
    140  O          7.4910   41.0030   64.1370 O.2   206  GLY206     -0.2714
    141  N          7.8850   38.9420   64.9260 N.am  207  GLU207     -0.1963
    142  CA         6.4750   38.5710   64.9330 C.3   207  GLU207      0.1733
    143  C          5.8270   39.3610   66.0730 C.2   207  GLU207      0.2617
    144  O          5.9480   39.0040   67.2450 O.2   207  GLU207     -0.2715
    145  CB         6.3440   37.0600   65.1400 C.3   207  GLU207      0.0429
    146  CG         6.9630   36.2400   64.0020 C.3   207  GLU207      0.1163
    147  CD         6.9020   34.7360   64.2430 C.2   207  GLU207      0.3649
    148  OE1        5.7890   34.2200   64.4660 O.co2 207  GLU207     -0.2457
    149  OE2        7.9630   34.0700   64.2060 O.co2 207  GLU207     -0.2457
    150  N          5.1530   40.4500   65.7140 N.am  208  GLY208     -0.1940
    151  CA         4.5450   41.3000   66.7180 C.3   208  GLY208      0.2014
    152  C          5.6710   42.0160   67.4430 C.2   208  GLY208      0.2639
    153  O          6.7130   42.2790   66.8530 O.2   208  GLY208     -0.2714
    154  N          5.4760   42.3270   68.7200 N.am  209  CYS209     -0.1967
    155  CA         6.5150   43.0000   69.4890 C.3   209  CYS209      0.1712
    156  C          6.5290   42.5520   70.9460 C.2   209  CYS209      0.2296
    157  O          5.5600   42.7560   71.6820 O.2   209  CYS209     -0.2864
    158  CB         6.3310   44.5170   69.4100 C.3   209  CYS209      0.0983
    159  SG         6.3470   45.1580   67.7300 S.3   209  CYS209     -0.0798
    160  N         13.5240   39.3890   68.7520 N.3   216  GLY216     -0.1210
    161  CA        13.6650   40.4420   67.7600 C.3   216  GLY216      0.1956
    162  C         14.6290   39.9470   66.6950 C.2   216  GLY216      0.2612
    163  O         15.5930   39.2450   67.0110 O.2   216  GLY216     -0.2717
    164  N         14.3770   40.2870   65.4360 N.am  217  ILE217     -0.1965
    165  CA        15.2520   39.8420   64.3610 C.3   217  ILE217      0.1727
    166  C         16.0050   41.0120   63.7330 C.2   217  ILE217      0.2616
    167  O         15.4010   41.9810   63.2580 O.2   217  ILE217     -0.2715
    168  CB        14.4710   39.1130   63.2600 C.3   217  ILE217      0.0290
    169  CG1       13.4800   38.1160   63.8850 C.3   217  ILE217      0.0022
    170  CG2       15.4500   38.3830   62.3390 C.3   217  ILE217      0.0023
    171  CD1       14.1240   37.0110   64.7070 C.3   217  ILE217      0.0001
    172  N         17.3270   40.8880   63.7120 N.am  218  TYR218     -0.1974
    173  CA        18.2120   41.9280   63.1910 C.3   218  TYR218      0.1639
    174  C         19.1210   41.4790   62.0470 C.2   218  TYR218      0.2290
    175  O         19.5380   40.3360   61.9940 O.2   218  TYR218     -0.2864
    176  CB        19.1020   42.4430   64.3200 C.3   218  TYR218      0.0560
    177  CG        18.3580   42.9400   65.5400 C.ar  218  TYR218     -0.0198
    178  CD1       17.7560   42.0500   66.4400 C.ar  218  TYR218     -0.0009
    179  CD2       18.2640   44.3030   65.8000 C.ar  218  TYR218     -0.0009
    180  CE1       17.0790   42.5200   67.5770 C.ar  218  TYR218      0.0417
    181  CE2       17.5900   44.7830   66.9280 C.ar  218  TYR218      0.0417
    182  CZ        17.0010   43.8860   67.8100 C.ar  218  TYR218      0.1957
    183  OH        16.3460   44.3820   68.9120 O.3   218  TYR218     -0.2866
@<TRIPOS>BOND
     1    28    26   ar
     2    25    26    1
     3    25    24    1
     4    26    27   ar
     5    24    21    1
     6    11    12    1
     7    19    18    1
     8    15    12    1
     9    15    16    1
    10    20    21    1
    11    20    13   am
    12    21    22    1
    13    12    13    1
    14    13    14    2
    15    16    17    1
    16    18    17    1
    17    34    33    1
    18    35    33    1
    19    22    29   am
    20    22    23    2
    21    29    30    1
    22    33    30    1
    23    30    31    1
    24    36    31   am
    25    36    37    1
    26     2     1    1
    27     2     3    1
    28     2     5    1
    29     4     3    2
    30    31    32    2
    31    37    38    1
    32    37    40    1
    33     5     6    1
    34    75    73    1
    35    38    39    2
    36    42    44   ar
    37    42    41   ar
    38    44    46   ar
    39    40    41    1
    40    41    43   ar
    41    46    47    1
    42    46    45   ar
    43     6     8   ar
    44     6     7   ar
    45    73    72    1
    46    74    72    1
    47    72    69    1
    48    43    45   ar
    49     8    10   ar
    50     7     9   ar
    51    65    63   ar
    52    65    67   ar
    53    63    62   ar
    54    10     9   ar
    55    69    68    1
    56    69    70    1
    57    68    59   am
    58    71    70    2
    59    67    66   ar
    60   122   121    1
    61    62    61    1
    62    62    64   ar
    63    58    61    1
    64    58    59    1
    65    58    57    1
    66    59    60    2
    67   131   129   ar
    68   131   132   ar
    69   129   128   ar
    70    66    64   ar
    71   132   134   ar
    72   132   130   ar
    73   121   118    1
    74   120   119    2
    75   128   127    1
    76   128   130   ar
    77   134   136   ar
    78   108   109    1
    79   108   105    1
    80   127   124    1
    81   130   133   ar
    82   118   119    1
    83   118   117    1
    84   119   123   am
    85   107   106    2
    86   106   105    1
    87   136   135   ar
    88   103   101   am
    89   113   112    2
    90   133   135   ar
    91   102   101    2
    92   105   104    1
    93   123   124    1
    94   175   174    2
    95   124   125    1
    96   174   173    1
    97   117   112   am
    98   101   100    1
    99   112   111    1
   100   170   168    1
   101   110   111    1
   102   173   172    1
   103   173   176    1
   104   125   137   am
   105   125   126    2
   106   167   166    2
   107   168   169    1
   108   168   165    1
   109   111   114    1
   110   100    99    1
   111   137   138    1
   112   172   166   am
   113   166   165    1
   114   169   171    1
   115   146   147    1
   116   146   145    1
   117   114   115    1
   118   114   116    1
   119   140   139    2
   120   149   147   ar
   121   147   148   ar
   122   176   177    1
   123   165   164    1
   124   139   138    1
   125   139   141   am
   126    99    96    1
   127    96    97    1
   128    96    95    1
   129    97    98    2
   130   141   142    1
   131   142   145    1
   132   142   143    1
   133   164   162   am
   134   177   179   ar
   135   177   178   ar
   136   150   143   am
   137   150   151    1
   138   179   181   ar
   139    95    91   am
   140    92    91    2
   141   143   144    2
   142   178   180   ar
   143    91    90    1
   144   162   163    2
   145   162   161    1
   146   151   152    1
   147   153   152    2
   148   181   182   ar
   149   152   154   am
   150   180   182   ar
   151    55    54   ar
   152    90    89    1
   153    90    93    1
   154   159   158    1
   155   161   160    1
   156   182   183    1
   157    51    50    2
   158    89    86   am
   159    88    85    1
   160    53    54    1
   161    53    52    1
   162    94    93    1
   163    54    56   ar
   164   154   155    1
   165    86    87    2
   166    86    85    1
   167    50    49    1
   168   158   155    1
   169    85    84    1
   170   155   156    1
   171    49    52    1
   172    49    48    1
   173    82    81   ar
   174    83    81   ar
   175    84    78   am
   176    81    80    1
   177   156   157    2
   178    78    79    2
   179    78    77    1
   180    80    77    1
   181    77    76    1
