@<TRIPOS>MOLECULE
tmp/2p94A00.pdb
 196 194 0 0 0
SMALL
GASTEIGER

@<TRIPOS>ATOM
      1  N         10.7290   41.4270   49.4130 N.3    82  LYS82      -0.1231
      2  CA         9.7820   41.3630   50.5230 C.3    82  LYS82       0.1693
      3  C          9.3510   39.9230   50.7800 C.2    82  LYS82       0.2592
      4  O          8.8360   39.5870   51.8490 O.2    82  LYS82      -0.2718
      5  CB         8.5490   42.2430   50.2270 C.3    82  LYS82       0.0285
      6  CG         8.9530   43.7140   50.2790 C.3    82  LYS82       0.0035
      7  CD         7.8920   44.7990   50.1210 C.3    82  LYS82       0.0206
      8  CE         7.1590   44.8220   48.7810 C.3    82  LYS82       0.1093
      9  NZ         6.2050   45.9700   48.6710 N.3    82  LYS82      -0.1314
     10  N          9.5850   39.0700   49.7930 N.am   83  GLU83      -0.1966
     11  CA         9.2230   37.6680   49.8970 C.3    83  GLU83       0.1733
     12  C          9.9510   36.9960   51.0520 C.2    83  GLU83       0.2617
     13  O          9.3470   36.2370   51.8090 O.2    83  GLU83      -0.2715
     14  CB         9.5560   36.9310   48.5770 C.3    83  GLU83       0.0429
     15  CG         9.0790   37.4800   47.2360 C.3    83  GLU83       0.1163
     16  CD         7.5730   37.6520   47.1710 C.2    83  GLU83       0.3649
     17  OE1        7.0500   38.5650   47.8450 O.co2  83  GLU83      -0.2457
     18  OE2        6.9140   36.8720   46.4490 O.co2  83  GLU83      -0.2457
     19  N         11.2430   37.2850   51.1870 N.am   84  THR84      -0.1937
     20  CA        12.0770   36.6910   52.2330 C.3    84  THR84       0.2028
     21  C         12.6100   37.6850   53.2520 C.2    84  THR84       0.2642
     22  O         12.9760   37.3000   54.3610 O.2    84  THR84      -0.2714
     23  CB        13.3200   36.0210   51.6370 C.3    84  THR84       0.1808
     24  OG1       14.1080   37.0160   50.9710 O.3    84  THR84      -0.2208
     25  CG2       12.9310   34.9340   50.6480 C.3    84  THR84       0.0379
     26  N         12.6710   38.9550   52.8620 N.am   85  TYR85      -0.1973
     27  CA        13.2050   39.9990   53.7250 C.3    85  TYR85       0.1639
     28  C         14.6940   39.7680   53.9520 C.2    85  TYR85       0.2290
     29  O         15.2620   40.2240   54.9410 O.2    85  TYR85      -0.2864
     30  CB        12.4650   40.0450   55.0740 C.3    85  TYR85       0.0560
     31  CG        11.4060   41.1190   55.1220 C.ar   85  TYR85      -0.0198
     32  CD1       10.2450   41.0200   54.3530 C.ar   85  TYR85      -0.0009
     33  CD2       11.5940   42.2720   55.8830 C.ar   85  TYR85      -0.0009
     34  CE1        9.3020   42.0460   54.3350 C.ar   85  TYR85       0.0417
     35  CE2       10.6570   43.3060   55.8710 C.ar   85  TYR85       0.0417
     36  CZ         9.5170   43.1860   55.0910 C.ar   85  TYR85       0.1957
     37  OH         8.6100   44.2190   55.0460 O.3    85  TYR85      -0.2866
     38  N          2.7410   47.1430   71.5020 N.3   135  GLU135     -0.1245
     39  CA         2.3830   46.5380   70.2180 C.3   135  GLU135      0.1567
     40  C          1.2610   47.3310   69.5490 C.2   135  GLU135      0.2260
     41  O          1.2330   47.4840   68.3260 O.2   135  GLU135     -0.2867
     42  CB         1.9580   45.0640   70.4090 C.3   135  GLU135      0.0388
     43  CG         1.9080   44.3710   69.0440 C.3   135  GLU135      0.1160
     44  CD         1.7320   42.8610   69.1510 C.2   135  GLU135      0.3649
     45  OE1        1.6340   42.1980   68.0950 O.co2 135  GLU135     -0.2457
     46  OE2        1.6940   42.3390   70.2880 O.co2 135  GLU135     -0.2457
     47  N          9.4740   31.9430   59.8700 N.3   162  PHE162     -0.1227
     48  CA        10.0660   32.3070   58.6000 C.3   162  PHE162      0.1736
     49  C         11.5090   31.8330   58.6110 C.2   162  PHE162      0.2595
     50  O         12.0990   31.6250   59.6730 O.2   162  PHE162     -0.2718
     51  CB         9.9990   33.8090   58.4240 C.3   162  PHE162      0.0547
     52  CG         8.5950   34.3540   58.4040 C.ar  162  PHE162     -0.0202
     53  CD1        7.8080   34.2500   57.2610 C.ar  162  PHE162     -0.0042
     54  CD2        8.0500   34.9510   59.5340 C.ar  162  PHE162     -0.0042
     55  CE1        6.4940   34.7340   57.2420 C.ar  162  PHE162     -0.0003
     56  CE2        6.7350   35.4380   59.5270 C.ar  162  PHE162     -0.0003
     57  CZ         5.9580   35.3270   58.3740 C.ar  162  PHE162     -0.0000
     58  N         12.0730   31.6510   57.4270 N.am  163  ILE163     -0.1980
     59  CA        13.4470   31.1960   57.3230 C.3   163  ILE163      0.1595
     60  C         14.4230   32.2730   57.7860 C.2   163  ILE163      0.2287
     61  O         14.4150   33.3950   57.2720 O.2   163  ILE163     -0.2864
     62  CB        13.8350   30.8540   55.8670 C.3   163  ILE163      0.0276
     63  CG1       12.7590   29.9460   55.2080 C.3   163  ILE163      0.0022
     64  CG2       15.2180   30.2000   55.8540 C.3   163  ILE163      0.0022
     65  CD1       12.6820   28.5500   55.7630 C.3   163  ILE163      0.0001
     66  N         11.3670   44.6240   73.8130 N.3   179  ASP179     -0.1225
     67  CA        11.6970   44.2790   72.4410 C.3   179  ASP179      0.1805
     68  C         11.5720   45.5280   71.5890 C.2   179  ASP179      0.2598
     69  O         11.0800   46.5600   72.0560 O.2   179  ASP179     -0.2718
     70  CB        10.7020   43.1860   71.9390 C.3   179  ASP179      0.1424
     71  CG        11.1490   42.5180   70.6540 C.2   179  ASP179      0.3668
     72  OD1       12.3430   42.1740   70.5510 O.co2 179  ASP179     -0.2456
     73  OD2       10.3040   42.3110   69.7560 O.co2 179  ASP179     -0.2456
     74  N         12.0450   45.4470   70.3510 N.am  180  ALA180     -0.1966
     75  CA        11.9190   46.5670   69.4410 C.3   180  ALA180      0.1728
     76  C         10.4580   46.4970   69.0270 C.2   180  ALA180      0.2616
     77  O          9.7440   45.5660   69.4100 O.2   180  ALA180     -0.2715
     78  CB        12.8180   46.3840   68.2330 C.3   180  ALA180      0.0334
     79  N         10.0100   47.4650   68.2450 N.am  181  CYS181     -0.1954
     80  CA         8.6260   47.4680   67.8210 C.3   181  CYS181      0.1843
     81  C          8.4690   48.1630   66.4790 C.2   181  CYS181      0.2625
     82  O          9.4520   48.5640   65.8660 O.2   181  CYS181     -0.2714
     83  CB         7.7850   48.1520   68.8620 C.3   181  CYS181      0.0997
     84  SG         6.0640   47.6110   68.9100 S.3   181  CYS181     -0.0797
     85  N          7.2300   48.3130   66.0280 N.am  182  GLN182     -0.1977
     86  CA         6.9740   48.9400   64.7390 C.3   182  GLN182      0.1601
     87  C          7.4550   50.3900   64.6850 C.2   182  GLN182      0.2287
     88  O          7.0990   51.2140   65.5280 O.2   182  GLN182     -0.2864
     89  CB         5.4910   48.8760   64.4240 C.3   182  GLN182      0.0394
     90  CG         5.3190   48.8620   62.9150 C.3   182  GLN182      0.0908
     91  CD         3.8800   48.6310   62.5000 C.2   182  GLN182      0.2608
     92  OE1        3.1900   47.7820   63.0670 O.2   182  GLN182     -0.2717
     93  NE2        3.4210   49.3790   61.4990 N.am  182  GLN182     -0.0878
     94  N         12.3420   49.9350   62.7750 N.3   185  SER185     -0.1217
     95  CA        13.0410   49.3500   61.6280 C.3   185  SER185      0.1889
     96  C         14.0720   50.2870   61.0230 C.2   185  SER185      0.2288
     97  O         13.8680   51.4990   60.9950 O.2   185  SER185     -0.2866
     98  CB        12.0540   48.9680   60.5510 C.3   185  SER185      0.2089
     99  OG        11.3010   47.8420   60.9450 O.3   185  SER185     -0.2183
    100  N         17.7020   47.0610   62.5550 N.3   203  VAL203     -0.1231
    101  CA        16.3930   46.5430   62.9200 C.3   203  VAL203      0.1692
    102  C         15.7020   46.1060   61.6380 C.2   203  VAL203      0.2593
    103  O         15.4000   46.9300   60.7760 O.2   203  VAL203     -0.2718
    104  CB        15.5410   47.6050   63.6270 C.3   203  VAL203      0.0266
    105  CG1       14.1810   47.0070   64.0040 C.3   203  VAL203      0.0020
    106  CG2       16.2620   48.0950   64.8770 C.3   203  VAL203      0.0020
    107  N         15.4510   44.8060   61.5260 N.am  204  SER204     -0.1938
    108  CA        14.8390   44.2530   60.3300 C.3   204  SER204      0.2055
    109  C         13.3460   43.9400   60.4580 C.2   204  SER204      0.2643
    110  O         12.5090   44.5820   59.8220 O.2   204  SER204     -0.2714
    111  CB        15.6100   42.9840   59.9030 C.3   204  SER204      0.2130
    112  OG        15.2590   42.5840   58.5860 O.3   204  SER204     -0.2179
    113  N         13.0130   42.9440   61.2680 N.am  205  TRP205     -0.1959
    114  CA        11.6180   42.5590   61.4430 C.3   205  TRP205      0.1771
    115  C         11.3880   41.7040   62.6800 C.2   205  TRP205      0.2620
    116  O         12.3330   41.2790   63.3490 O.2   205  TRP205     -0.2715
    117  CB        11.0950   41.8030   60.1850 C.3   205  TRP205      0.0590
    118  CG        11.8890   40.5770   59.8210 C.ar  205  TRP205      0.0006
    119  CD1       13.0250   40.5250   59.0630 C.ar  205  TRP205      0.0946
    120  CD2       11.6230   39.2270   60.2370 C.ar  205  TRP205      0.0152
    121  NE1       13.4850   39.2290   58.9840 N.ar  205  TRP205     -0.2442
    122  CE2       12.6430   38.4130   59.6950 C.ar  205  TRP205      0.0810
    123  CE3       10.6190   38.6290   61.0170 C.ar  205  TRP205      0.0012
    124  CZ2       12.6940   37.0270   59.9090 C.ar  205  TRP205      0.0191
    125  CZ3       10.6690   37.2460   61.2300 C.ar  205  TRP205      0.0001
    126  CH2       11.7020   36.4620   60.6740 C.ar  205  TRP205      0.0015
    127  N         10.1120   41.4830   62.9740 N.am  206  GLY206     -0.1940
    128  CA         9.7200   40.6800   64.1140 C.3   206  GLY206      0.2014
    129  C          8.2440   40.3220   64.0310 C.2   206  GLY206      0.2639
    130  O          7.4360   41.1130   63.5320 O.2   206  GLY206     -0.2714
    131  N          7.8940   39.1240   64.4960 N.am  207  GLU207     -0.1963
    132  CA         6.5020   38.6790   64.4940 C.3   207  GLU207      0.1733
    133  C          5.8300   39.3310   65.6990 C.2   207  GLU207      0.2617
    134  O          5.7090   38.7320   66.7680 O.2   207  GLU207     -0.2715
    135  CB         6.4250   37.1490   64.6080 C.3   207  GLU207      0.0429
    136  CG         7.0560   36.4240   63.4330 C.3   207  GLU207      0.1163
    137  CD         7.1110   34.9200   63.6380 C.2   207  GLU207      0.3649
    138  OE1        6.0310   34.2920   63.7370 O.co2 207  GLU207     -0.2457
    139  OE2        8.2340   34.3670   63.7060 O.co2 207  GLU207     -0.2457
    140  N          5.4070   40.5740   65.5180 N.am  208  GLY208     -0.1940
    141  CA         4.7810   41.3000   66.6030 C.3   208  GLY208      0.2014
    142  C          5.8550   41.9930   67.4120 C.2   208  GLY208      0.2639
    143  O          6.9430   42.2720   66.8980 O.2   208  GLY208     -0.2714
    144  N          5.5630   42.2660   68.6800 N.am  209  CYS209     -0.1967
    145  CA         6.5310   42.9350   69.5370 C.3   209  CYS209      0.1712
    146  C          6.4920   42.4190   70.9600 C.2   209  CYS209      0.2296
    147  O          5.4740   42.5290   71.6440 O.2   209  CYS209     -0.2864
    148  CB         6.2850   44.4460   69.5570 C.3   209  CYS209      0.0983
    149  SG         6.3220   45.2130   67.9450 S.3   209  CYS209     -0.0798
    150  N          6.2980   39.5200   72.0270 N.3   211  ARG211     -0.1245
    151  CA         5.4930   38.3180   72.2420 C.3   211  ARG211      0.1563
    152  C          6.3100   37.1750   72.8490 C.2   211  ARG211      0.2260
    153  O          7.5040   37.0200   72.5650 O.2   211  ARG211     -0.2867
    154  CB         4.8660   37.8430   70.9230 C.3   211  ARG211      0.0307
    155  CG         3.8690   38.8060   70.3040 C.3   211  ARG211      0.0489
    156  CD         3.2090   38.2380   69.0500 C.3   211  ARG211      0.2205
    157  NE         2.2840   39.1890   68.4310 N.pl3 211  ARG211     -0.0865
    158  CZ         1.6120   38.9580   67.3060 C.cat 211  ARG211      0.5346
    159  NH1        1.7580   37.8010   66.6690 N.pl3 211  ARG211      0.1354
    160  NH2        0.8000   39.8840   66.8110 N.pl3 211  ARG211      0.1354
    161  N         11.3680   36.5790   68.9550 N.3   215  TYR215     -0.1227
    162  CA        12.5590   37.4160   69.0770 C.3   215  TYR215      0.1736
    163  C         12.6490   38.5140   68.0150 C.2   215  TYR215      0.2596
    164  O         11.9090   38.5110   67.0320 O.2   215  TYR215     -0.2718
    165  CB        13.7920   36.5540   68.9400 C.3   215  TYR215      0.0548
    166  CG        13.9720   35.4980   69.9990 C.ar  215  TYR215     -0.0200
    167  CD1       14.5490   35.8100   71.2260 C.ar  215  TYR215     -0.0009
    168  CD2       13.6210   34.1780   69.7520 C.ar  215  TYR215     -0.0009
    169  CE1       14.7830   34.8310   72.1770 C.ar  215  TYR215      0.0417
    170  CE2       13.8480   33.1850   70.6950 C.ar  215  TYR215      0.0417
    171  CZ        14.4350   33.5140   71.9050 C.ar  215  TYR215      0.1957
    172  OH        14.7070   32.5210   72.8260 O.3   215  TYR215     -0.2866
    173  N         13.5730   39.4500   68.2210 N.am  216  GLY216     -0.1942
    174  CA        13.7820   40.5050   67.2450 C.3   216  GLY216      0.2014
    175  C         14.7580   39.9890   66.1950 C.2   216  GLY216      0.2639
    176  O         15.7240   39.3060   66.5290 O.2   216  GLY216     -0.2714
    177  N         14.5070   40.3030   64.9300 N.am  217  ILE217     -0.1963
    178  CA        15.3660   39.8470   63.8440 C.3   217  ILE217      0.1727
    179  C         16.1260   41.0150   63.1990 C.2   217  ILE217      0.2616
    180  O         15.5260   41.9160   62.6070 O.2   217  ILE217     -0.2715
    181  CB        14.5320   39.1400   62.7490 C.3   217  ILE217      0.0290
    182  CG1       13.4580   38.1500   63.4130 C.3   217  ILE217      0.0022
    183  CG2       15.4500   38.4060   61.8040 C.3   217  ILE217      0.0023
    184  CD1       14.0380   37.0140   64.2610 C.3   217  ILE217      0.0001
    185  N         17.4490   40.9840   63.3050 N.am  218  TYR218     -0.1974
    186  CA        18.2770   42.0500   62.7540 C.3   218  TYR218      0.1639
    187  C         19.1490   41.5890   61.6090 C.2   218  TYR218      0.2290
    188  O         19.5030   40.4180   61.5210 O.2   218  TYR218     -0.2864
    189  CB        19.1770   42.6060   63.8150 C.3   218  TYR218      0.0560
    190  CG        18.4600   43.1020   65.0450 C.ar  218  TYR218     -0.0198
    191  CD1       17.8260   42.2130   65.9250 C.ar  218  TYR218     -0.0009
    192  CD2       18.4300   44.4580   65.3460 C.ar  218  TYR218     -0.0009
    193  CE1       17.1880   42.6750   67.0750 C.ar  218  TYR218      0.0417
    194  CE2       17.7980   44.9300   66.4890 C.ar  218  TYR218      0.0417
    195  CZ        17.1820   44.0390   67.3500 C.ar  218  TYR218      0.1957
    196  OH        16.5790   44.5250   68.4920 O.3   218  TYR218     -0.2866
@<TRIPOS>BOND
     1    18    16   ar
     2    16    15    1
     3    16    17   ar
     4    15    14    1
     5    14    11    1
     6     9     8    1
     7     8     7    1
     8     1     2    1
     9    10    11    1
    10    10     3   am
    11    11    12    1
    12     7     6    1
    13     5     6    1
    14     5     2    1
    15     2     3    1
    16    25    23    1
    17     3     4    2
    18    24    23    1
    19    12    19   am
    20    12    13    2
    21    19    20    1
    22    23    20    1
    23    20    21    1
    24    26    21   am
    25    26    27    1
    26    21    22    2
    27    27    28    1
    28    27    30    1
    29    28    29    2
    30    34    32   ar
    31    34    36   ar
    32    32    31   ar
    33    37    36    1
    34    30    31    1
    35    36    35   ar
    36    31    33   ar
    37    63    65    1
    38    63    62    1
    39    64    62    1
    40    62    59    1
    41    35    33   ar
    42    55    53   ar
    43    55    57   ar
    44    53    52   ar
    45    61    60    2
    46    59    58    1
    47    59    60    1
    48    58    49   am
    49    57    56   ar
    50    52    51    1
    51    52    54   ar
    52    51    48    1
    53   112   111    1
    54    48    49    1
    55    48    47    1
    56    49    50    2
    57   121   119   ar
    58   121   122   ar
    59   119   118   ar
    60    56    54   ar
    61   122   124   ar
    62   122   120   ar
    63   118   117    1
    64   118   120   ar
    65   110   109    2
    66   111   108    1
    67   124   126   ar
    68   117   114    1
    69   120   123   ar
    70   108   109    1
    71   108   107    1
    72   109   113   am
    73    98    99    1
    74    98    95    1
    75   126   125   ar
    76   103   102    2
    77    97    96    2
    78   123   125   ar
    79    96    95    1
    80   113   114    1
    81   114   115    1
    82    93    91   am
    83   188   187    2
    84   107   102   am
    85   187   186    1
    86    95    94    1
    87   102   101    1
    88   183   181    1
    89    91    90    1
    90    91    92    2
    91   100   101    1
    92   180   179    2
    93   115   127   am
    94   115   116    2
    95   181   182    1
    96   181   178    1
    97   186   185    1
    98   186   189    1
    99    90    89    1
   100   101   104    1
   101   127   128    1
   102   179   185   am
   103   179   178    1
   104   182   184    1
   105   136   137    1
   106   136   135    1
   107   130   129    2
   108   104   105    1
   109   104   106    1
   110   137   139   ar
   111   137   138   ar
   112   189   190    1
   113   178   177    1
   114   129   128    1
   115   129   131   am
   116    89    86    1
   117   132   131    1
   118   132   135    1
   119   132   133    1
   120    87    86    1
   121    87    88    2
   122    86    85    1
   123   177   175   am
   124   190   192   ar
   125   190   191   ar
   126   192   194   ar
   127   140   133   am
   128   140   141    1
   129   133   134    2
   130    82    81    2
   131   191   193   ar
   132    85    81   am
   133   175   176    2
   134   175   174    1
   135    81    80    1
   136   194   195   ar
   137   141   142    1
   138   159   158    1
   139   160   158    1
   140   143   142    2
   141   164   163    2
   142   193   195   ar
   143   174   173    1
   144   158   157    2
   145   195   196    1
   146   142   144   am
   147    80    79    1
   148    80    83    1
   149   149   148    1
   150   163   173   am
   151   163   162    1
   152    45    44   ar
   153    78    75    1
   154    79    76   am
   155    41    40    2
   156   157   156    1
   157   144   145    1
   158    83    84    1
   159   165   162    1
   160   165   166    1
   161   161   162    1
   162    76    77    2
   163    76    75    1
   164    43    44    1
   165    43    42    1
   166   156   155    1
   167    44    46   ar
   168    75    74    1
   169   145   148    1
   170   145   146    1
   171    40    39    1
   172   168   166   ar
   173   168   170   ar
   174    73    71   ar
   175   166   167   ar
   176    39    42    1
   177    39    38    1
   178   155   154    1
   179    74    68   am
   180    72    71   ar
   181    71    70    1
   182   170   171   ar
   183   154   151    1
   184   146   147    2
   185   167   169   ar
   186    68    69    2
   187    68    67    1
   188   171   169   ar
   189   171   172    1
   190    70    67    1
   191   150   151    1
   192   151   152    1
   193    67    66    1
   194   153   152    2
