@<TRIPOS>MOLECULE
tmp/2p95A00.pdb
 194 191 0 0 0
SMALL
GASTEIGER

@<TRIPOS>ATOM
      1  N         14.0570   47.4960   53.2600 N.3    42  HIS42      -0.1241
      2  CA        12.6000   47.5330   53.2400 C.3    42  HIS42       0.1621
      3  C         12.0280   48.8900   53.6490 C.2    42  HIS42       0.2264
      4  O         10.8200   49.1260   53.5280 O.2    42  HIS42      -0.2867
      5  CB        12.0160   46.4360   54.1320 C.3    42  HIS42       0.0745
      6  CG        11.9300   46.8060   55.5840 C.ar   42  HIS42       0.0817
      7  ND1       13.0270   46.8360   56.4100 N.ar   42  HIS42      -0.2268
      8  CD2       10.8620   47.1240   56.3540 C.ar   42  HIS42       0.1154
      9  CE1       12.6410   47.1540   57.6370 C.ar   42  HIS42       0.1986
     10  NE2       11.3340   47.3330   57.6280 N.ar   42  HIS42      -0.2212
     11  N         10.8340   41.3550   49.6090 N.3    82  LYS82      -0.1231
     12  CA         9.8590   41.3430   50.6950 C.3    82  LYS82       0.1693
     13  C          9.3190   39.9440   50.9350 C.2    82  LYS82       0.2592
     14  O          8.5840   39.7070   51.8980 O.2    82  LYS82      -0.2718
     15  CB         8.6970   42.2900   50.3780 C.3    82  LYS82       0.0285
     16  CG         9.0880   43.7570   50.3600 C.3    82  LYS82       0.0035
     17  CD         7.9520   44.7190   50.0630 C.3    82  LYS82       0.0206
     18  CE         7.2970   44.4390   48.7090 C.3    82  LYS82       0.1093
     19  NZ         8.2570   44.5430   47.5720 N.3    82  LYS82      -0.1314
     20  N          9.6950   39.0240   50.0510 N.am   83  GLU83      -0.1966
     21  CA         9.2520   37.6420   50.1420 C.3    83  GLU83       0.1733
     22  C          9.9800   36.9280   51.2700 C.2    83  GLU83       0.2617
     23  O          9.4130   36.0740   51.9450 O.2    83  GLU83      -0.2715
     24  CB         9.5190   36.9290   48.8140 C.3    83  GLU83       0.0429
     25  CG         9.2180   37.7960   47.6000 C.3    83  GLU83       0.1163
     26  CD         7.7980   38.3300   47.5970 C.2    83  GLU83       0.3649
     27  OE1        7.5170   39.2590   46.8070 O.co2  83  GLU83      -0.2457
     28  OE2        6.9610   37.8210   48.3760 O.co2  83  GLU83      -0.2457
     29  N         11.2420   37.2940   51.4690 N.am   84  THR84      -0.1937
     30  CA        12.0610   36.6830   52.5050 C.3    84  THR84       0.2028
     31  C         12.6170   37.6910   53.5040 C.2    84  THR84       0.2642
     32  O         12.8040   37.3690   54.6620 O.2    84  THR84      -0.2714
     33  CB        13.2590   35.9520   51.9000 C.3    84  THR84       0.1808
     34  OG1       14.0380   36.8800   51.1310 O.3    84  THR84      -0.2208
     35  CG2       12.7930   34.8010   51.0160 C.3    84  THR84       0.0379
     36  N         12.8880   38.9030   53.0330 N.am   85  TYR85      -0.1973
     37  CA        13.4550   39.9600   53.8570 C.3    85  TYR85       0.1639
     38  C         14.9400   39.7260   54.0840 C.2    85  TYR85       0.2290
     39  O         15.5190   40.2440   55.0280 O.2    85  TYR85      -0.2864
     40  CB        12.7280   40.0710   55.2010 C.3    85  TYR85       0.0560
     41  CG        11.7060   41.1780   55.2210 C.ar   85  TYR85      -0.0198
     42  CD1       10.6530   41.1920   54.3040 C.ar   85  TYR85      -0.0009
     43  CD2       11.8160   42.2430   56.1130 C.ar   85  TYR85      -0.0009
     44  CE1        9.7450   42.2430   54.2670 C.ar   85  TYR85       0.0417
     45  CE2       10.9080   43.3030   56.0860 C.ar   85  TYR85       0.0417
     46  CZ         9.8780   43.2990   55.1580 C.ar   85  TYR85       0.1957
     47  OH         8.9910   44.3530   55.0700 O.3    85  TYR85      -0.2866
     48  N          6.8570   52.3790   67.6590 N.3   132  ARG132     -0.1245
     49  CA         5.7070   52.1610   68.5370 C.3   132  ARG132      0.1563
     50  C          6.0750   51.6040   69.9000 C.2   132  ARG132      0.2260
     51  O          6.9280   50.7310   70.0120 O.2   132  ARG132     -0.2867
     52  CB         4.7050   51.2030   67.8820 C.3   132  ARG132      0.0307
     53  CG         4.0960   51.7120   66.6010 C.3   132  ARG132      0.0489
     54  CD         3.1160   50.6940   66.0520 C.3   132  ARG132      0.2205
     55  NE         2.7950   50.9710   64.6520 N.pl3 132  ARG132     -0.0865
     56  CZ         2.0800   50.1640   63.8750 C.cat 132  ARG132      0.5346
     57  NH1        1.6010   49.0230   64.3610 N.pl3 132  ARG132      0.1354
     58  NH2        1.8540   50.4890   62.6090 N.pl3 132  ARG132      0.1354
     59  N          2.5410   47.1140   70.4270 N.3   135  GLU135     -0.1245
     60  CA         2.2750   46.5370   69.1100 C.3   135  GLU135      0.1567
     61  C          1.2690   47.3890   68.3560 C.2   135  GLU135      0.2260
     62  O          1.4040   47.6140   67.1610 O.2   135  GLU135     -0.2867
     63  CB         1.7520   45.1110   69.2450 C.3   135  GLU135      0.0388
     64  CG         1.4980   44.4390   67.9090 C.3   135  GLU135      0.1160
     65  CD         1.2680   42.9450   68.0520 C.2   135  GLU135      0.3649
     66  OE1        0.9890   42.2890   67.0220 O.co2 135  GLU135     -0.2457
     67  OE2        1.3760   42.4370   69.1910 O.co2 135  GLU135     -0.2457
     68  N          9.3810   31.8050   59.8540 N.3   162  PHE162     -0.1227
     69  CA        10.0040   32.2060   58.5930 C.3   162  PHE162      0.1736
     70  C         11.4630   31.7790   58.6610 C.2   162  PHE162      0.2595
     71  O         12.0070   31.6230   59.7350 O.2   162  PHE162     -0.2718
     72  CB         9.9360   33.7230   58.4200 C.3   162  PHE162      0.0547
     73  CG         8.5450   34.2610   58.3530 C.ar  162  PHE162     -0.0202
     74  CD1        7.7720   34.0850   57.2120 C.ar  162  PHE162     -0.0042
     75  CD2        8.0000   34.9440   59.4340 C.ar  162  PHE162     -0.0042
     76  CE1        6.4730   34.5860   57.1490 C.ar  162  PHE162     -0.0003
     77  CE2        6.7010   35.4480   59.3820 C.ar  162  PHE162     -0.0003
     78  CZ         5.9360   35.2690   58.2360 C.ar  162  PHE162     -0.0000
     79  N         12.0940   31.6090   57.5060 N.am  163  ILE163     -0.1980
     80  CA        13.4910   31.1890   57.4600 C.3   163  ILE163      0.1595
     81  C         14.4670   32.2670   57.9400 C.2   163  ILE163      0.2287
     82  O         14.4690   33.3800   57.4260 O.2   163  ILE163     -0.2864
     83  CB        13.8990   30.7920   56.0260 C.3   163  ILE163      0.0276
     84  CG1       13.0130   29.6260   55.5740 C.3   163  ILE163      0.0022
     85  CG2       15.3890   30.4320   55.9710 C.3   163  ILE163      0.0022
     86  CD1       13.2100   29.2380   54.1190 C.3   163  ILE163      0.0001
     87  N         10.9720   44.7510   73.2370 N.3   179  ASP179     -0.1225
     88  CA        11.3660   44.4250   71.8850 C.3   179  ASP179      0.1805
     89  C         11.2200   45.6700   71.0260 C.2   179  ASP179      0.2598
     90  O         10.6200   46.6540   71.4440 O.2   179  ASP179     -0.2718
     91  CB        10.4550   43.2980   71.3710 C.3   179  ASP179      0.1424
     92  CG        10.9130   42.7070   70.0430 C.2   179  ASP179      0.3668
     93  OD1       12.1110   42.8150   69.7260 O.co2 179  ASP179     -0.2456
     94  OD2       10.0660   42.1160   69.3350 O.co2 179  ASP179     -0.2456
     95  N         11.8070   45.6420   69.8360 N.am  180  ALA180     -0.1966
     96  CA        11.6840   46.7640   68.9160 C.3   180  ALA180      0.1728
     97  C         10.2810   46.6420   68.3540 C.2   180  ALA180      0.2616
     98  O          9.5740   45.7120   68.6700 O.2   180  ALA180     -0.2715
     99  CB        12.7110   46.6520   67.8040 C.3   180  ALA180      0.0334
    100  N          9.8880   47.5810   67.5100 N.am  181  CYS181     -0.1954
    101  CA         8.5500   47.5360   66.9490 C.3   181  CYS181      0.1843
    102  C          8.4450   48.3670   65.6800 C.2   181  CYS181      0.2625
    103  O          9.4330   48.9170   65.2010 O.2   181  CYS181     -0.2714
    104  CB         7.5290   48.0380   67.9830 C.3   181  CYS181      0.0997
    105  SG         5.7840   47.8620   67.5020 S.3   181  CYS181     -0.0797
    106  N          7.2270   48.4470   65.1550 N.am  182  GLN182     -0.1977
    107  CA         6.9570   49.1890   63.9410 C.3   182  GLN182      0.1601
    108  C          7.4850   50.6150   64.0670 C.2   182  GLN182      0.2287
    109  O          7.0900   51.3490   64.9750 O.2   182  GLN182     -0.2864
    110  CB         5.4540   49.2150   63.6780 C.3   182  GLN182      0.0394
    111  CG         5.0660   49.8920   62.3820 C.3   182  GLN182      0.0908
    112  CD         5.5340   49.1200   61.1660 C.2   182  GLN182      0.2608
    113  OE1        5.1220   47.9830   60.9440 O.2   182  GLN182     -0.2717
    114  NE2        6.4030   49.7380   60.3690 N.am  182  GLN182     -0.0878
    115  N         12.5050   50.0690   62.4450 N.3   185  SER185     -0.1217
    116  CA        13.1750   49.3940   61.3500 C.3   185  SER185      0.1889
    117  C         14.2710   50.2330   60.7160 C.2   185  SER185      0.2288
    118  O         14.0990   51.4270   60.5300 O.2   185  SER185     -0.2866
    119  CB        12.1560   48.9900   60.2900 C.3   185  SER185      0.2089
    120  OG        11.2290   48.0570   60.8090 O.3   185  SER185     -0.2183
    121  N         17.8230   46.9440   62.5990 N.3   203  VAL203     -0.1231
    122  CA        16.4530   46.5150   62.9020 C.3   203  VAL203      0.1692
    123  C         15.7620   46.0710   61.6110 C.2   203  VAL203      0.2593
    124  O         15.5680   46.8660   60.7010 O.2   203  VAL203     -0.2718
    125  CB        15.6100   47.6620   63.5060 C.3   203  VAL203      0.0266
    126  CG1       14.2300   47.1310   63.9240 C.3   203  VAL203      0.0020
    127  CG2       16.3420   48.2810   64.6930 C.3   203  VAL203      0.0020
    128  N         15.3810   44.8000   61.5330 N.am  204  SER204     -0.1938
    129  CA        14.7520   44.3010   60.3120 C.3   204  SER204      0.2055
    130  C         13.2710   43.9150   60.4380 C.2   204  SER204      0.2643
    131  O         12.4200   44.5110   59.7770 O.2   204  SER204     -0.2714
    132  CB        15.5620   43.1170   59.7700 C.3   204  SER204      0.2130
    133  OG        15.1610   42.8060   58.4490 O.3   204  SER204     -0.2179
    134  N         12.9610   42.9130   61.2590 N.am  205  TRP205     -0.1959
    135  CA        11.5670   42.5080   61.4160 C.3   205  TRP205      0.1771
    136  C         11.2790   41.6220   62.6110 C.2   205  TRP205      0.2620
    137  O         12.1930   41.1300   63.2840 O.2   205  TRP205     -0.2715
    138  CB        11.0800   41.7690   60.1750 C.3   205  TRP205      0.0590
    139  CG        11.8730   40.5380   59.8600 C.ar  205  TRP205      0.0006
    140  CD1       13.0380   40.4740   59.1490 C.ar  205  TRP205      0.0946
    141  CD2       11.5570   39.1860   60.2360 C.ar  205  TRP205      0.0152
    142  NE1       13.4650   39.1710   59.0540 N.ar  205  TRP205     -0.2442
    143  CE2       12.5770   38.3590   59.7090 C.ar  205  TRP205      0.0810
    144  CE3       10.5110   38.5920   60.9640 C.ar  205  TRP205      0.0012
    145  CZ2       12.5840   36.9680   59.8850 C.ar  205  TRP205      0.0191
    146  CZ3       10.5190   37.2050   61.1400 C.ar  205  TRP205      0.0001
    147  CH2       11.5490   36.4120   60.6010 C.ar  205  TRP205      0.0015
    148  N          9.9820   41.4140   62.8430 N.am  206  GLY206     -0.1940
    149  CA         9.5270   40.5630   63.9270 C.3   206  GLY206      0.2014
    150  C          8.0840   40.1320   63.7340 C.2   206  GLY206      0.2639
    151  O          7.3310   40.7680   62.9980 O.2   206  GLY206     -0.2714
    152  N          7.7010   39.0320   64.3780 N.am  207  GLU207     -0.1963
    153  CA         6.3210   38.5430   64.3020 C.3   207  GLU207      0.1733
    154  C          5.6070   39.1970   65.4800 C.2   207  GLU207      0.2617
    155  O          5.6430   38.7040   66.5930 O.2   207  GLU207     -0.2715
    156  CB         6.2820   37.0140   64.4240 C.3   207  GLU207      0.0429
    157  CG         7.0450   36.2980   63.3130 C.3   207  GLU207      0.1163
    158  CD         6.9750   34.7860   63.4290 C.2   207  GLU207      0.3649
    159  OE1        5.8550   34.2330   63.3410 O.co2 207  GLU207     -0.2457
    160  OE2        8.0410   34.1540   63.5980 O.co2 207  GLU207     -0.2457
    161  N          4.9690   40.3280   65.2100 N.am  208  GLY208     -0.1940
    162  CA         4.3020   41.0590   66.2610 C.3   208  GLY208      0.2014
    163  C          5.3680   41.8760   66.9710 C.2   208  GLY208      0.2639
    164  O          6.3020   42.3350   66.3340 O.2   208  GLY208     -0.2714
    165  N          5.2400   42.0520   68.2830 N.am  209  CYS209     -0.1967
    166  CA         6.2270   42.8120   69.0480 C.3   209  CYS209      0.1712
    167  C          6.2510   42.3800   70.5020 C.2   209  CYS209      0.2296
    168  O          5.2620   42.5060   71.1950 O.2   209  CYS209     -0.2864
    169  CB         5.9260   44.3100   68.9860 C.3   209  CYS209      0.0983
    170  SG         5.9800   45.0090   67.3440 S.3   209  CYS209     -0.0798
    171  N         13.4460   39.3210   68.1760 N.3   216  GLY216     -0.1210
    172  CA        13.6240   40.3810   67.1990 C.3   216  GLY216      0.1956
    173  C         14.6320   39.9410   66.1540 C.2   216  GLY216      0.2612
    174  O         15.6220   39.3250   66.4830 O.2   216  GLY216     -0.2717
    175  N         14.3750   40.2540   64.8910 N.am  217  ILE217     -0.1965
    176  CA        15.2880   39.8560   63.8300 C.3   217  ILE217      0.1727
    177  C         16.0740   41.0460   63.2690 C.2   217  ILE217      0.2616
    178  O         15.5030   42.0430   62.8490 O.2   217  ILE217     -0.2715
    179  CB        14.5300   39.1470   62.6870 C.3   217  ILE217      0.0290
    180  CG1       13.5130   38.1660   63.2890 C.3   217  ILE217      0.0022
    181  CG2       15.5050   38.4150   61.7860 C.3   217  ILE217      0.0023
    182  CD1       14.0690   37.2530   64.3770 C.3   217  ILE217      0.0001
    183  N         17.3960   40.9100   63.2650 N.am  218  TYR218     -0.1974
    184  CA        18.2910   41.9570   62.7910 C.3   218  TYR218      0.1639
    185  C         19.1770   41.5210   61.6390 C.2   218  TYR218      0.2290
    186  O         19.5050   40.3580   61.5020 O.2   218  TYR218     -0.2864
    187  CB        19.1860   42.4470   63.9400 C.3   218  TYR218      0.0560
    188  CG        18.4070   42.9470   65.1410 C.ar  218  TYR218     -0.0198
    189  CD1       17.7250   42.0590   65.9770 C.ar  218  TYR218     -0.0009
    190  CD2       18.3010   44.3090   65.4070 C.ar  218  TYR218     -0.0009
    191  CE1       16.9540   42.5190   67.0450 C.ar  218  TYR218      0.0417
    192  CE2       17.5300   44.7780   66.4680 C.ar  218  TYR218      0.0417
    193  CZ        16.8590   43.8830   67.2810 C.ar  218  TYR218      0.1957
    194  OH        16.0870   44.3560   68.3190 O.3   218  TYR218     -0.2866
@<TRIPOS>BOND
     1    27    26   ar
     2    19    18    1
     3    26    25    1
     4    26    28   ar
     5    25    24    1
     6    18    17    1
     7    24    21    1
     8    11    12    1
     9    20    21    1
    10    20    13   am
    11    17    16    1
    12    21    22    1
    13    16    15    1
    14    15    12    1
    15    12    13    1
    16    13    14    2
    17    35    33    1
    18    34    33    1
    19    22    29   am
    20    22    23    2
    21    29    30    1
    22    33    30    1
    23    30    31    1
    24    36    31   am
    25    36    37    1
    26     2     1    1
    27     2     3    1
    28     2     5    1
    29    31    32    2
    30     4     3    2
    31    37    38    1
    32    37    40    1
    33    38    39    2
    34    86    84    1
    35     5     6    1
    36    44    42   ar
    37    44    46   ar
    38    42    41   ar
    39    47    46    1
    40    46    45   ar
    41    40    41    1
    42    41    43   ar
    43    84    83    1
    44     6     8   ar
    45     6     7   ar
    46    85    83    1
    47    83    80    1
    48    45    43   ar
    49     8    10   ar
    50     7     9   ar
    51    76    74   ar
    52    76    78   ar
    53    74    73   ar
    54    82    81    2
    55    80    79    1
    56    80    81    1
    57    79    70   am
    58    10     9   ar
    59    78    77   ar
    60    73    72    1
    61    73    75   ar
    62    72    69    1
    63   133   132    1
    64    69    70    1
    65    69    68    1
    66    70    71    2
    67   142   140   ar
    68   142   143   ar
    69   140   139   ar
    70    77    75   ar
    71   143   145   ar
    72   143   141   ar
    73   132   129    1
    74   131   130    2
    75   139   138    1
    76   139   141   ar
    77   145   147   ar
    78   138   135    1
    79   141   144   ar
    80   119   120    1
    81   119   116    1
    82   129   130    1
    83   129   128    1
    84   114   112   am
    85   130   134   am
    86   118   117    2
    87   147   146   ar
    88   124   123    2
    89   117   116    1
    90   113   112    2
    91   144   146   ar
    92   112   111    1
    93   134   135    1
    94   116   115    1
    95   135   136    1
    96   186   185    2
    97   128   123   am
    98   123   122    1
    99   185   184    1
   100   181   179    1
   101   111   110    1
   102   121   122    1
   103    58    56    1
   104   136   148   am
   105   136   137    2
   106   179   180    1
   107   179   176    1
   108   184   183    1
   109   184   187    1
   110   148   149    1
   111   178   177    2
   112   122   125    1
   113   151   150    2
   114   183   177   am
   115   177   176    1
   116   180   182    1
   117   157   158    1
   118   157   156    1
   119   159   158   ar
   120   158   160   ar
   121   125   126    1
   122   125   127    1
   123   110   107    1
   124   150   149    1
   125   150   152   am
   126   176   175    1
   127    56    57    1
   128    56    55    2
   129   187   188    1
   130   107   108    1
   131   107   106    1
   132   108   109    2
   133   153   152    1
   134   153   156    1
   135   153   154    1
   136    55    54    1
   137   175   173   am
   138   188   190   ar
   139   188   189   ar
   140   106   102   am
   141   103   102    2
   142   161   154   am
   143   161   162    1
   144   190   192   ar
   145   154   155    2
   146   102   101    1
   147   189   191   ar
   148    54    53    1
   149   173   174    2
   150   173   172    1
   151   162   163    1
   152   164   163    2
   153   192   193   ar
   154    53    52    1
   155   101   100    1
   156   101   104    1
   157   163   165   am
   158    66    65   ar
   159   191   193   ar
   160    62    61    2
   161   172   171    1
   162   193   194    1
   163   170   169    1
   164   105   104    1
   165   100    97   am
   166    48    49    1
   167    99    96    1
   168    52    49    1
   169    64    65    1
   170    64    63    1
   171    65    67   ar
   172   165   166    1
   173    97    98    2
   174    97    96    1
   175    61    60    1
   176    49    50    1
   177    96    95    1
   178   169   166    1
   179   166   167    1
   180    60    63    1
   181    60    59    1
   182    94    92   ar
   183    93    92   ar
   184    95    89   am
   185    50    51    2
   186    92    91    1
   187   167   168    2
   188    89    90    2
   189    89    88    1
   190    91    88    1
   191    88    87    1
