@<TRIPOS>MOLECULE
tmp/2p98A00.pdb
 144 140 0 0 0
SMALL
GASTEIGER

@<TRIPOS>ATOM
      1  N         -4.5010    6.9120    9.9870 N.3    58  CYS58      -0.1235
      2  CA        -5.1790    5.7010   10.4230 C.3    58  CYS58       0.1677
      3  C         -6.6100    5.9160   10.8660 C.2    58  CYS58       0.2270
      4  O         -7.4690    5.0650   10.6350 O.2    58  CYS58      -0.2867
      5  CB        -4.3960    5.0710   11.5570 C.3    58  CYS58       0.0956
      6  SG        -2.7590    4.5640   11.0660 S.3    58  CYS58      -0.0801
      7  N         -9.2950    4.9590    8.5150 N.3    61  TYR61      -0.1227
      8  CA        -8.7700    4.2120    7.3780 C.3    61  TYR61       0.1736
      9  C         -9.4810    2.8780    7.2550 C.2    61  TYR61       0.2595
     10  O         -9.3620    2.0070    8.1190 O.2    61  TYR61      -0.2718
     11  CB        -7.2670    3.9830    7.5220 C.3    61  TYR61       0.0548
     12  CG        -6.6300    3.3840    6.2850 C.ar   61  TYR61      -0.0200
     13  CD1       -6.5380    4.1130    5.0980 C.ar   61  TYR61      -0.0009
     14  CD2       -6.1120    2.0940    6.3050 C.ar   61  TYR61      -0.0009
     15  CE1       -5.9420    3.5670    3.9620 C.ar   61  TYR61       0.0417
     16  CE2       -5.5160    1.5380    5.1800 C.ar   61  TYR61       0.0417
     17  CZ        -5.4320    2.2780    4.0130 C.ar   61  TYR61       0.1957
     18  OH        -4.8260    1.7240    2.9120 O.3    61  TYR61      -0.2866
     19  N        -10.2150    2.7210    6.1610 N.am   62  HIS62      -0.1975
     20  CA       -10.9830    1.5130    5.9340 C.3    62  HIS62       0.1656
     21  C        -11.9070    1.3020    7.1250 C.2    62  HIS62       0.2291
     22  O        -12.2600    0.1760    7.4560 O.2    62  HIS62      -0.2864
     23  CB       -10.0670    0.3030    5.7660 C.3    62  HIS62       0.0771
     24  CG        -9.2580    0.3260    4.5090 C.ar   62  HIS62       0.0820
     25  ND1       -9.2570    1.4000    3.6440 N.ar   62  HIS62      -0.2267
     26  CD2       -8.4110   -0.5860    3.9780 C.ar   62  HIS62       0.1154
     27  CE1       -8.4410    1.1470    2.6350 C.ar   62  HIS62       0.1986
     28  NE2       -7.9150   -0.0510    2.8150 N.ar   62  HIS62      -0.2212
     29  N        -11.1940    2.2330   10.3430 N.3    64  TYR64      -0.1241
     30  CA       -10.5100    2.0800   11.6260 C.3    64  TYR64       0.1605
     31  C        -11.0110    3.1860   12.5590 C.2    64  TYR64       0.2264
     32  O        -11.0270    4.3580   12.1920 O.2    64  TYR64      -0.2867
     33  CB        -8.9880    2.1680   11.4560 C.3    64  TYR64       0.0534
     34  CG        -8.2400    1.6590   12.6670 C.ar   64  TYR64      -0.0201
     35  CD1       -8.1890    0.2960   12.9550 C.ar   64  TYR64      -0.0009
     36  CD2       -7.6380    2.5460   13.5620 C.ar   64  TYR64      -0.0009
     37  CE1       -7.5630   -0.1750   14.1080 C.ar   64  TYR64       0.0417
     38  CE2       -7.0120    2.0850   14.7170 C.ar   64  TYR64       0.0417
     39  CZ        -6.9800    0.7270   14.9850 C.ar   64  TYR64       0.1957
     40  OH        -6.3880    0.2740   16.1450 O.3    64  TYR64      -0.2866
     41  N         -2.6170    2.6740   16.4500 N.3    69  CYS69      -0.1235
     42  CA        -2.8710    1.2900   16.8390 C.3    69  CYS69       0.1677
     43  C         -1.9750    1.0280   18.0310 C.2    69  CYS69       0.2270
     44  O         -0.7990    1.3940   18.0130 O.2    69  CYS69      -0.2867
     45  CB        -2.4790    0.2990   15.7410 C.3    69  CYS69       0.0956
     46  SG        -3.4030    0.4340   14.2150 S.3    69  CYS69      -0.0801
     47  N         -2.7600   -3.8190   14.9220 N.3    78  HIS78      -0.1241
     48  CA        -4.0620   -3.1730   14.8510 C.3    78  HIS78       0.1621
     49  C         -4.8560   -3.1430   16.1520 C.2    78  HIS78       0.2264
     50  O         -6.0810   -3.0280   16.1310 O.2    78  HIS78      -0.2867
     51  CB        -4.8840   -3.8280   13.7320 C.3    78  HIS78       0.0745
     52  CG        -4.2160   -3.7730   12.3910 C.ar   78  HIS78       0.0817
     53  ND1       -4.7160   -4.4230   11.2820 N.ar   78  HIS78      -0.2268
     54  CD2       -3.0910   -3.1410   11.9790 C.ar   78  HIS78       0.1154
     55  CE1       -3.9270   -4.1930   10.2460 C.ar   78  HIS78       0.1986
     56  NE2       -2.9340   -3.4180   10.6420 N.ar   78  HIS78      -0.2212
     57  N          1.6950    2.1680   16.8270 N.3    96  ASP96      -0.1239
     58  CA         1.8370    2.3110   15.3930 C.3    96  ASP96       0.1674
     59  C          1.1960    3.6260   14.9770 C.2    96  ASP96       0.2266
     60  O         -0.0140    3.8030   15.1060 O.2    96  ASP96      -0.2867
     61  CB         1.1450    1.1260   14.7220 C.3    96  ASP96       0.1410
     62  CG         1.4050    1.0580   13.2480 C.2    96  ASP96       0.3668
     63  OD1        1.9990    2.0050   12.7130 O.co2  96  ASP96      -0.2456
     64  OD2        1.0060    0.0550   12.6280 O.co2  96  ASP96      -0.2456
     65  N          5.0000    6.7820    8.1420 N.3   107  ASP107     -0.1239
     66  CA         4.5420    5.5720    8.8180 C.3   107  ASP107      0.1674
     67  C          5.6330    4.9330    9.6820 C.2   107  ASP107      0.2266
     68  O          6.6720    4.5360    9.1740 O.2   107  ASP107     -0.2867
     69  CB         4.0750    4.5960    7.7330 C.3   107  ASP107      0.1410
     70  CG         3.1290    3.5420    8.2450 C.2   107  ASP107      0.3668
     71  OD1        2.7000    3.6130    9.4170 O.co2 107  ASP107     -0.2456
     72  OD2        2.7940    2.6440    7.4490 O.co2 107  ASP107     -0.2456
     73  N          5.2140   -1.7490    2.8690 N.3   170  HIS170     -0.1241
     74  CA         4.5320   -1.2960    1.6690 C.3   170  HIS170      0.1621
     75  C          5.0620    0.0130    1.1240 C.2   170  HIS170      0.2264
     76  O          5.6970    0.7890    1.8400 O.2   170  HIS170     -0.2867
     77  CB         3.0560   -1.1260    2.0160 C.3   170  HIS170      0.0745
     78  CG         2.8340   -0.2920    3.2400 C.ar  170  HIS170      0.0817
     79  ND1        2.8130    1.0860    3.2080 N.ar  170  HIS170     -0.2268
     80  CD2        2.7310   -0.6390    4.5450 C.ar  170  HIS170      0.1154
     81  CE1        2.7080    1.5520    4.4410 C.ar  170  HIS170      0.1986
     82  NE2        2.6570    0.5260    5.2710 N.ar  170  HIS170     -0.2212
     83  N         -1.5240    5.6570    1.4760 N.3   176  PHE176     -0.1227
     84  CA        -1.0680    5.0260    2.7100 C.3   176  PHE176      0.1736
     85  C         -0.3190    3.7450    2.3260 C.2   176  PHE176      0.2595
     86  O          0.8620    3.5820    2.6410 O.2   176  PHE176     -0.2718
     87  CB        -2.2830    4.7060    3.5900 C.3   176  PHE176      0.0547
     88  CG        -1.9480    4.3010    5.0070 C.ar  176  PHE176     -0.0202
     89  CD1       -0.6850    3.8330    5.3510 C.ar  176  PHE176     -0.0042
     90  CD2       -2.9370    4.3240    5.9860 C.ar  176  PHE176     -0.0042
     91  CE1       -0.4150    3.3890    6.6460 C.ar  176  PHE176     -0.0003
     92  CE2       -2.6760    3.8830    7.2820 C.ar  176  PHE176     -0.0003
     93  CZ        -1.4100    3.4130    7.6100 C.ar  176  PHE176     -0.0000
     94  N         -1.0100    2.8430    1.6360 N.am  177  HIS177     -0.1975
     95  CA        -0.4040    1.5890    1.2090 C.3   177  HIS177      0.1656
     96  C         -0.3140    1.5190   -0.3110 C.2   177  HIS177      0.2291
     97  O         -1.2920    1.1890   -0.9770 O.2   177  HIS177     -0.2864
     98  CB        -1.2140    0.3950    1.7280 C.3   177  HIS177      0.0771
     99  CG        -1.3080    0.3280    3.2210 C.ar  177  HIS177      0.0820
    100  ND1       -2.2220    1.0630    3.9460 N.ar  177  HIS177     -0.2267
    101  CD2       -0.5760   -0.3600    4.1290 C.ar  177  HIS177      0.1154
    102  CE1       -2.0460    0.8330    5.2350 C.ar  177  HIS177      0.1986
    103  NE2       -1.0520   -0.0260    5.3730 N.ar  177  HIS177     -0.2212
    104  N          8.5610   -3.2240    8.1620 N.3   203  GLU203     -0.1245
    105  CA         7.9150   -3.3190    9.4670 C.3   203  GLU203      0.1567
    106  C          7.6480   -4.7560    9.9140 C.2   203  GLU203      0.2260
    107  O          6.4990   -5.1720   10.1090 O.2   203  GLU203     -0.2867
    108  CB         6.6010   -2.5330    9.4090 C.3   203  GLU203      0.0388
    109  CG         5.7920   -2.8260    8.1350 C.3   203  GLU203      0.1160
    110  CD         4.4650   -2.0970    8.0860 C.2   203  GLU203      0.3649
    111  OE1        3.5880   -2.4010    8.9190 O.co2 203  GLU203     -0.2457
    112  OE2        4.2990   -1.2200    7.2090 O.co2 203  GLU203     -0.2457
    113  N        -10.7770   -6.0960   14.0600 N.3   220  TRP220     -0.1241
    114  CA        -9.4940   -5.4110   13.9270 C.3   220  TRP220      0.1605
    115  C         -8.3280   -6.0670   14.6570 C.2   220  TRP220      0.2264
    116  O         -7.2930   -6.3710   14.0580 O.2   220  TRP220     -0.2867
    117  CB        -9.6250   -3.9650   14.4130 C.3   220  TRP220      0.0550
    118  CG       -10.4390   -3.1100   13.5050 C.ar  220  TRP220      0.0003
    119  CD1      -11.6590   -2.5570   13.7680 C.ar  220  TRP220      0.0946
    120  CD2      -10.1040   -2.7290   12.1680 C.ar  220  TRP220      0.0152
    121  NE1      -12.1060   -1.8560   12.6750 N.ar  220  TRP220     -0.2442
    122  CE2      -11.1700   -1.9460   11.6770 C.ar  220  TRP220      0.0810
    123  CE3       -9.0040   -2.9770   11.3350 C.ar  220  TRP220      0.0012
    124  CZ2      -11.1710   -1.4050   10.3860 C.ar  220  TRP220      0.0191
    125  CZ3       -9.0040   -2.4410   10.0550 C.ar  220  TRP220      0.0001
    126  CH2      -10.0830   -1.6630    9.5920 C.ar  220  TRP220      0.0015
    127  N          6.9750   -5.6210   16.9810 N.3   232  GLN232     -0.1245
    128  CA         7.1270   -4.9790   15.6810 C.3   232  GLN232      0.1566
    129  C          7.7860   -3.6000   15.7800 C.2   232  GLN232      0.2260
    130  O          7.5660   -2.8540   16.7370 O.2   232  GLN232     -0.2867
    131  CB         5.7480   -4.8370   14.9910 C.3   232  GLN232      0.0367
    132  CG         5.7700   -4.0280   13.6860 C.3   232  GLN232      0.0905
    133  CD         4.3940   -3.8760   13.0160 C.2   232  GLN232      0.2608
    134  OE1        3.3950   -3.5710   13.6720 O.2   232  GLN232     -0.2717
    135  NE2        4.3500   -4.0650   11.6970 N.am  232  GLN232     -0.0878
    136  N          8.9710   -0.3310   12.9140 N.3   234  GLU234     -0.1245
    137  CA         8.7880    0.1200   11.5370 C.3   234  GLU234      0.1567
    138  C          9.4350    1.4610   11.2300 C.2   234  GLU234      0.2260
    139  O          9.4980    2.3390   12.0810 O.2   234  GLU234     -0.2867
    140  CB         7.2880    0.2250   11.2140 C.3   234  GLU234      0.0388
    141  CG         6.9680    0.9350    9.8890 C.3   234  GLU234      0.1160
    142  CD         5.4820    1.1710    9.6940 C.2   234  GLU234      0.3649
    143  OE1        4.7850    1.4030   10.7000 O.co2 234  GLU234     -0.2457
    144  OE2        5.0110    1.1440    8.5380 O.co2 234  GLU234     -0.2457
@<TRIPOS>BOND
     1    97    96    2
     2    96    95    1
     3    75    74    1
     4    75    76    2
     5    95    94    1
     6    95    98    1
     7    83    84    1
     8    94    85   am
     9    74    77    1
    10    74    73    1
    11    98    99    1
    12    77    78    1
    13    85    86    2
    14    85    84    1
    15    27    28   ar
    16    27    25   ar
    17    84    87    1
    18    28    26   ar
    19    18    17    1
    20    79    78   ar
    21    79    81   ar
    22    99   100   ar
    23    99   101   ar
    24    78    80   ar
    25    87    88    1
    26    25    24   ar
    27   100   102   ar
    28    15    17   ar
    29    15    13   ar
    30    26    24   ar
    31    17    16   ar
    32   101   103   ar
    33    81    82   ar
    34    24    23    1
    35    80    82   ar
    36    88    89   ar
    37    88    90   ar
    38    13    12   ar
    39    16    14   ar
    40   102   103   ar
    41    89    91   ar
    42    23    20    1
    43    20    19    1
    44    20    21    1
    45    90    92   ar
    46    19     9   am
    47    12    14   ar
    48    12    11    1
    49    91    93   ar
    50    21    22    2
    51   112   110   ar
    52     9     8    1
    53     9    10    2
    54    92    93   ar
    55     8    11    1
    56     8     7    1
    57    72    70   ar
    58    69    70    1
    59    69    66    1
    60   110   109    1
    61   110   111   ar
    62   109   108    1
    63    65    66    1
    64   104   105    1
    65    70    71   ar
    66   144   142   ar
    67    66    67    1
    68    68    67    2
    69   108   105    1
    70   105   106    1
    71   126   125   ar
    72   126   124   ar
    73   142   141    1
    74   142   143   ar
    75   141   140    1
    76   106   107    2
    77     1     2    1
    78   125   123   ar
    79    55    56   ar
    80    55    53   ar
    81    29    30    1
    82   124   122   ar
    83     2     3    1
    84     2     5    1
    85     4     3    2
    86    56    54   ar
    87     6     5    1
    88   140   137    1
    89   138   137    1
    90   138   139    2
    91    53    52   ar
    92   123   120   ar
    93    33    30    1
    94    33    34    1
    95   137   136    1
    96    30    31    1
    97   122   120   ar
    98   122   121   ar
    99   135   133   am
   100    54    52   ar
   101   120   118   ar
   102    32    31    2
   103    52    51    1
   104    64    62   ar
   105    34    35   ar
   106    34    36   ar
   107   121   119   ar
   108    63    62   ar
   109    35    37   ar
   110   133   134    2
   111   133   132    1
   112    62    61    1
   113   118   119   ar
   114   118   117    1
   115    36    38   ar
   116   132   131    1
   117    51    48    1
   118   114   113    1
   119   114   117    1
   120   114   115    1
   121   116   115    2
   122    37    39   ar
   123    46    45    1
   124    38    39   ar
   125    61    58    1
   126    48    47    1
   127    48    49    1
   128    59    60    2
   129    59    58    1
   130    39    40    1
   131   131   128    1
   132    58    57    1
   133   128   129    1
   134   128   127    1
   135    45    42    1
   136   129   130    2
   137    50    49    2
   138    41    42    1
   139    42    43    1
   140    44    43    2
