@<TRIPOS>MOLECULE
tmp/2p9aA00.pdb
 126 124 0 0 0
SMALL
GASTEIGER

@<TRIPOS>ATOM
      1  N         -4.7640    6.9530    9.8180 N.3    58  CYS58      -0.1235
      2  CA        -5.4200    5.7080   10.2180 C.3    58  CYS58       0.1677
      3  C         -6.9140    5.8170   10.4840 C.2    58  CYS58       0.2270
      4  O         -7.6650    4.8830   10.2090 O.2    58  CYS58      -0.2867
      5  CB        -4.7540    5.1420   11.4670 C.3    58  CYS58       0.0956
      6  SG        -2.9980    4.8960   11.2970 S.3    58  CYS58      -0.0801
      7  N         -9.3840    4.7020    7.7170 N.3    61  TYR61      -0.1227
      8  CA        -8.7620    3.8290    6.7340 C.3    61  TYR61       0.1736
      9  C         -9.3920    2.4450    6.8310 C.2    61  TYR61       0.2595
     10  O         -9.2350    1.7530    7.8360 O.2    61  TYR61      -0.2718
     11  CB        -7.2570    3.7420    6.9860 C.3    61  TYR61       0.0548
     12  CG        -6.4950    3.0860    5.8670 C.ar   61  TYR61      -0.0200
     13  CD1       -6.4230    3.6770    4.6060 C.ar   61  TYR61      -0.0009
     14  CD2       -5.8470    1.8710    6.0620 C.ar   61  TYR61      -0.0009
     15  CE1       -5.7240    3.0730    3.5700 C.ar   61  TYR61       0.0417
     16  CE2       -5.1440    1.2580    5.0340 C.ar   61  TYR61       0.0417
     17  CZ        -5.0860    1.8640    3.7920 C.ar   61  TYR61       0.1957
     18  OH        -4.3870    1.2580    2.7780 O.3    61  TYR61      -0.2866
     19  N        -10.1060    2.0520    5.7790 N.am   62  HIS62      -0.1975
     20  CA       -10.7840    0.7630    5.7500 C.3    62  HIS62       0.1656
     21  C        -11.7120    0.6620    6.9560 C.2    62  HIS62       0.2291
     22  O        -12.0940   -0.4310    7.3700 O.2    62  HIS62      -0.2864
     23  CB        -9.7760   -0.3880    5.7690 C.3    62  HIS62       0.0771
     24  CG        -9.0160   -0.5520    4.4880 C.ar   62  HIS62       0.0820
     25  ND1       -9.6390   -0.7190    3.2700 N.ar   62  HIS62      -0.2267
     26  CD2       -7.6860   -0.6010    4.2390 C.ar   62  HIS62       0.1154
     27  CE1       -8.7270   -0.8640    2.3260 C.ar   62  HIS62       0.1986
     28  NE2       -7.5330   -0.7960    2.8880 N.ar   62  HIS62      -0.2212
     29  N        -10.9760    1.9920   10.1140 N.3    64  TYR64      -0.1241
     30  CA       -10.2990    1.9880   11.4120 C.3    64  TYR64       0.1605
     31  C        -10.8650    3.1150   12.2790 C.2    64  TYR64       0.2264
     32  O        -10.8670    4.2770   11.8800 O.2    64  TYR64      -0.2867
     33  CB        -8.7880    2.1550   11.2420 C.3    64  TYR64       0.0534
     34  CG        -8.0290    1.8530   12.5110 C.ar   64  TYR64      -0.0201
     35  CD1       -7.9440    0.5490   13.0010 C.ar   64  TYR64      -0.0009
     36  CD2       -7.4410    2.8760   13.2550 C.ar   64  TYR64      -0.0009
     37  CE1       -7.2960    0.2710   14.2030 C.ar   64  TYR64       0.0417
     38  CE2       -6.7910    2.6090   14.4550 C.ar   64  TYR64       0.0417
     39  CZ        -6.7230    1.3070   14.9250 C.ar   64  TYR64       0.1957
     40  OH        -6.0900    1.0500   16.1200 O.3    64  TYR64      -0.2866
     41  N         -2.5880    2.8600   16.4560 N.3    69  CYS69      -0.1235
     42  CA        -2.8310    1.4740   16.8340 C.3    69  CYS69       0.1677
     43  C         -1.9550    1.1850   18.0320 C.2    69  CYS69       0.2270
     44  O         -0.7740    1.5310   18.0400 O.2    69  CYS69      -0.2867
     45  CB        -2.4630    0.5110   15.7040 C.3    69  CYS69       0.0956
     46  SG        -3.4590    0.7110   14.2160 S.3    69  CYS69      -0.0801
     47  N         -2.9460   -3.7100   15.0040 N.3    78  HIS78      -0.1241
     48  CA        -4.2700   -3.1090   14.9740 C.3    78  HIS78       0.1621
     49  C         -5.0140   -3.1050   16.3070 C.2    78  HIS78       0.2264
     50  O         -6.2470   -3.0850   16.3340 O.2    78  HIS78      -0.2867
     51  CB        -5.1050   -3.7990   13.8890 C.3    78  HIS78       0.0745
     52  CG        -4.5080   -3.6890   12.5210 C.ar   78  HIS78       0.0817
     53  ND1       -4.9590   -4.4240   11.4460 N.ar   78  HIS78      -0.2268
     54  CD2       -3.4920   -2.9250   12.0530 C.ar   78  HIS78       0.1154
     55  CE1       -4.2460   -4.1190   10.3760 C.ar   78  HIS78       0.1986
     56  NE2       -3.3490   -3.2120   10.7170 N.ar   78  HIS78      -0.2212
     57  N          1.7230    2.2230   16.7070 N.3    96  ASP96      -0.1239
     58  CA         1.9680    2.4210   15.2870 C.3    96  ASP96       0.1674
     59  C          1.2560    3.6970   14.8770 C.2    96  ASP96       0.2266
     60  O          0.0430    3.8340   15.0710 O.2    96  ASP96      -0.2867
     61  CB         1.4350    1.2150   14.5030 C.3    96  ASP96       0.1410
     62  CG         1.8880    1.2090   13.0530 C.2    96  ASP96       0.3668
     63  OD1        2.4900    2.2060   12.6050 O.co2  96  ASP96      -0.2456
     64  OD2        1.6280    0.2050   12.3540 O.co2  96  ASP96      -0.2456
     65  N          0.6960    6.8710   11.8440 N.3    98  THR98      -0.1218
     66  CA         0.7670    7.2740   10.4520 C.3    98  THR98       0.1862
     67  C          0.0860    8.6240   10.3410 C.2    98  THR98       0.2287
     68  O         -1.0930    8.7710   10.6730 O.2    98  THR98      -0.2866
     69  CB         0.0900    6.2810    9.4990 C.3    98  THR98       0.1770
     70  OG1        0.6700    4.9860    9.6790 O.3    98  THR98      -0.2211
     71  CG2        0.3080    6.7190    8.0490 C.3    98  THR98       0.0375
     72  N          4.9740    6.9480    8.1740 N.3   107  ASP107     -0.1239
     73  CA         4.5190    5.7370    8.8550 C.3   107  ASP107      0.1674
     74  C          5.6140    5.0950    9.7110 C.2   107  ASP107      0.2266
     75  O          6.6810    4.7560    9.2120 O.2   107  ASP107     -0.2867
     76  CB         4.0370    4.7610    7.7720 C.3   107  ASP107      0.1410
     77  CG         3.2510    3.6010    8.3210 C.2   107  ASP107      0.3668
     78  OD1        3.0760    3.5090    9.5530 O.co2 107  ASP107     -0.2456
     79  OD2        2.7990    2.7710    7.4990 O.co2 107  ASP107     -0.2456
     80  N          0.8720   -9.7400    7.0690 N.3   167  TYR167     -0.1241
     81  CA         1.1340   -8.3180    6.9010 C.3   167  TYR167      0.1605
     82  C          2.5160   -8.0320    6.3530 C.2   167  TYR167      0.2264
     83  O          3.4680   -8.7810    6.5930 O.2   167  TYR167     -0.2867
     84  CB         0.9200   -7.5850    8.2250 C.3   167  TYR167      0.0534
     85  CG        -0.4920   -7.7240    8.7370 C.ar  167  TYR167     -0.0201
     86  CD1       -0.8480   -8.7740    9.5850 C.ar  167  TYR167     -0.0009
     87  CD2       -1.4890   -6.8460    8.3200 C.ar  167  TYR167     -0.0009
     88  CE1       -2.1660   -8.9440   10.0010 C.ar  167  TYR167      0.0417
     89  CE2       -2.8080   -7.0080    8.7280 C.ar  167  TYR167      0.0417
     90  CZ        -3.1390   -8.0560    9.5660 C.ar  167  TYR167      0.1957
     91  OH        -4.4470   -8.2060    9.9640 O.3   167  TYR167     -0.2866
     92  N         -1.4640    5.7920    1.3980 N.3   176  PHE176     -0.1227
     93  CA        -1.0150    5.1420    2.6310 C.3   176  PHE176      0.1736
     94  C         -0.2770    3.8570    2.2490 C.2   176  PHE176      0.2595
     95  O          0.9020    3.6810    2.5640 O.2   176  PHE176     -0.2718
     96  CB        -2.2380    4.8250    3.5020 C.3   176  PHE176      0.0547
     97  CG        -1.9230    4.4570    4.9360 C.ar  176  PHE176     -0.0202
     98  CD1       -0.6890    3.9310    5.3020 C.ar  176  PHE176     -0.0042
     99  CD2       -2.9130    4.5610    5.9070 C.ar  176  PHE176     -0.0042
    100  CE1       -0.4490    3.5070    6.6130 C.ar  176  PHE176     -0.0003
    101  CE2       -2.6850    4.1410    7.2160 C.ar  176  PHE176     -0.0003
    102  CZ        -1.4490    3.6110    7.5690 C.ar  176  PHE176     -0.0000
    103  N         -0.9780    2.9630    1.5590 N.am  177  HIS177     -0.1975
    104  CA        -0.3980    1.6990    1.1230 C.3   177  HIS177      0.1656
    105  C         -0.2810    1.6570   -0.3970 C.2   177  HIS177      0.2291
    106  O         -1.2580    1.3720   -1.0870 O.2   177  HIS177     -0.2864
    107  CB        -1.2600    0.5260    1.5980 C.3   177  HIS177      0.0771
    108  CG        -1.1210    0.2200    3.0570 C.ar  177  HIS177      0.0820
    109  ND1       -0.4870   -0.9130    3.5210 N.ar  177  HIS177     -0.2267
    110  CD2       -1.5180    0.9050    4.1550 C.ar  177  HIS177      0.1154
    111  CE1       -0.5000   -0.9110    4.8420 C.ar  177  HIS177      0.1986
    112  NE2       -1.1190    0.1810    5.2510 N.ar  177  HIS177     -0.2212
    113  N        -10.8540   -6.1380   14.1560 N.3   220  TRP220     -0.1241
    114  CA        -9.5860   -5.4200   14.0300 C.3   220  TRP220      0.1605
    115  C         -8.4210   -6.0150   14.8090 C.2   220  TRP220      0.2264
    116  O         -7.3400   -6.2430   14.2570 O.2   220  TRP220     -0.2867
    117  CB        -9.7620   -3.9640   14.4740 C.3   220  TRP220      0.0550
    118  CG       -10.4850   -3.1160   13.4840 C.ar  220  TRP220      0.0003
    119  CD1      -11.7470   -2.6090   13.5990 C.ar  220  TRP220      0.0946
    120  CD2       -9.9990   -2.7000   12.2040 C.ar  220  TRP220      0.0152
    121  NE1      -12.0780   -1.9060   12.4670 N.ar  220  TRP220     -0.2442
    122  CE2      -11.0230   -1.9460   11.5930 C.ar  220  TRP220      0.0810
    123  CE3       -8.7960   -2.8940   11.5120 C.ar  220  TRP220      0.0012
    124  CZ2      -10.8820   -1.3840   10.3200 C.ar  220  TRP220      0.0191
    125  CZ3       -8.6560   -2.3370   10.2490 C.ar  220  TRP220      0.0001
    126  CH2       -9.6950   -1.5910    9.6650 C.ar  220  TRP220      0.0015
@<TRIPOS>BOND
     1   106   105    2
     2   105   104    1
     3   104   103    1
     4   104   107    1
     5    92    93    1
     6   103    94   am
     7   107   108    1
     8    94    95    2
     9    94    93    1
    10    27    28   ar
    11    27    25   ar
    12    93    96    1
    13    18    17    1
    14    28    26   ar
    15   108   109   ar
    16   108   110   ar
    17    25    24   ar
    18    96    97    1
    19   109   111   ar
    20    15    17   ar
    21    15    13   ar
    22    17    16   ar
    23   110   112   ar
    24    26    24   ar
    25    24    23    1
    26    13    12   ar
    27   111   112   ar
    28    97    98   ar
    29    97    99   ar
    30    16    14   ar
    31    98   100   ar
    32    20    23    1
    33    20    19    1
    34    20    21    1
    35    19     9   am
    36    12    14   ar
    37    12    11    1
    38    99   101   ar
    39    82    83    2
    40    82    81    1
    41   100   102   ar
    42     8     9    1
    43     8    11    1
    44     8     7    1
    45     9    10    2
    46    81    80    1
    47    81    84    1
    48    21    22    2
    49   101   102   ar
    50    79    77   ar
    51    76    77    1
    52    76    73    1
    53    71    69    1
    54    72    73    1
    55    84    85    1
    56    87    89   ar
    57    87    85   ar
    58    77    78   ar
    59    89    90   ar
    60    85    86   ar
    61    73    74    1
    62    75    74    2
    63    69    70    1
    64    69    66    1
    65    90    91    1
    66    90    88   ar
    67    86    88   ar
    68   126   125   ar
    69   126   124   ar
    70     1     2    1
    71    29    30    1
    72     4     3    2
    73     2     3    1
    74     2     5    1
    75   125   123   ar
    76   124   122   ar
    77    67    66    1
    78    67    68    2
    79    55    56   ar
    80    55    53   ar
    81    66    65    1
    82    56    54   ar
    83    33    30    1
    84    33    34    1
    85     6     5    1
    86    30    31    1
    87    53    52   ar
    88   123   120   ar
    89   122   120   ar
    90   122   121   ar
    91    32    31    2
    92    54    52   ar
    93   120   118   ar
    94    64    62   ar
    95   121   119   ar
    96    34    35   ar
    97    34    36   ar
    98    52    51    1
    99    63    62   ar
   100    35    37   ar
   101    62    61    1
   102    36    38   ar
   103   118   119   ar
   104   118   117    1
   105    51    48    1
   106   114   113    1
   107   114   117    1
   108   114   115    1
   109    37    39   ar
   110    46    45    1
   111   116   115    2
   112    38    39   ar
   113    61    58    1
   114    59    60    2
   115    59    58    1
   116    39    40    1
   117    48    47    1
   118    48    49    1
   119    58    57    1
   120    45    42    1
   121    49    50    2
   122    41    42    1
   123    42    43    1
   124    43    44    2
