@<TRIPOS>MOLECULE
tmp/2p9dA00.pdb
 177 173 0 0 0
SMALL
GASTEIGER

@<TRIPOS>ATOM
      1  N         29.0530   93.9410   61.0180 N.3    10  LEU10      -0.1231
      2  CA        27.9150   93.2220   61.6830 C.3    10  LEU10       0.1693
      3  C         27.4250   91.8850   61.0190 C.2    10  LEU10       0.2592
      4  O         27.2570   90.8630   61.6720 O.2    10  LEU10      -0.2718
      5  CB        26.7400   94.1930   61.8020 C.3    10  LEU10       0.0284
      6  CG        27.0500   95.3840   62.7090 C.3    10  LEU10       0.0019
      7  CD1       25.9130   96.4090   62.7290 C.3    10  LEU10       0.0001
      8  CD2       27.2900   94.9780   64.1650 C.3    10  LEU10       0.0001
      9  N         27.1000   91.9390   59.7350 N.am   11  TYR11      -0.1976
     10  CA        26.4330   90.8160   59.1020 C.3    11  TYR11       0.1639
     11  C         27.0690   90.1720   57.8700 C.2    11  TYR11       0.2290
     12  O         27.2390   88.9510   57.8300 O.2    11  TYR11      -0.2864
     13  CB        25.0090   91.2720   58.7780 C.3    11  TYR11       0.0560
     14  CG        24.0790   90.2070   58.2770 C.ar   11  TYR11      -0.0198
     15  CD1       23.7120   89.1330   59.0860 C.ar   11  TYR11      -0.0009
     16  CD2       23.5260   90.2930   57.0010 C.ar   11  TYR11      -0.0009
     17  CE1       22.8080   88.1720   58.6360 C.ar   11  TYR11       0.0417
     18  CE2       22.6290   89.3410   56.5410 C.ar   11  TYR11       0.0417
     19  CZ        22.2730   88.2860   57.3640 C.ar   11  TYR11       0.1957
     20  OH        21.3740   87.3520   56.9090 O.3    11  TYR11      -0.2866
     21  N         35.4330   85.2940   67.3890 N.3    36  THR36      -0.1203
     22  CA        34.9490   86.2880   68.3530 C.3    36  THR36       0.1994
     23  C         33.5020   86.6940   68.1190 C.2    36  THR36       0.2619
     24  O         32.8660   87.2700   68.9980 O.2    36  THR36      -0.2717
     25  CB        35.8180   87.5740   68.3710 C.3    36  THR36       0.1784
     26  OG1       35.8660   88.1510   67.0590 O.3    36  THR36      -0.2211
     27  CG2       37.2280   87.2600   68.8590 C.3    36  THR36       0.0376
     28  N         32.9830   86.4000   66.9320 N.am   37  SER37      -0.1937
     29  CA        31.6020   86.7250   66.6080 C.3    37  SER37       0.2055
     30  C         31.1660   85.9440   65.3780 C.2    37  SER37       0.2642
     31  O         31.9550   85.1990   64.7940 O.2    37  SER37      -0.2714
     32  CB        31.4470   88.2250   66.3440 C.3    37  SER37       0.2130
     33  OG        30.0750   88.5870   66.2940 O.3    37  SER37      -0.2179
     34  N         29.9050   86.1110   64.9980 N.am   38  LEU38      -0.1977
     35  CA        29.3570   85.4310   63.8350 C.3    38  LEU38       0.1596
     36  C         28.7840   86.4200   62.8200 C.2    38  LEU38       0.2287
     37  O         27.9470   87.2550   63.1610 O.2    38  LEU38      -0.2864
     38  CB        28.2550   84.4540   64.2630 C.3    38  LEU38       0.0297
     39  CG        27.4460   83.7760   63.1460 C.3    38  LEU38       0.0022
     40  CD1       28.3510   82.8720   62.3220 C.3    38  LEU38       0.0001
     41  CD2       26.3030   82.9660   63.7510 C.3    38  LEU38       0.0001
     42  N         35.3310   90.0710   62.7650 N.3    85  PRO85      -0.2102
     43  CA        33.9090   90.4260   62.6550 C.3    85  PRO85       0.1504
     44  C         33.6990   91.7180   63.4500 C.2    85  PRO85       0.2576
     45  O         34.4860   92.0160   64.3510 O.2    85  PRO85      -0.2718
     46  CB        33.2020   89.2420   63.3130 C.3    85  PRO85       0.0282
     47  CG        34.1580   88.1040   63.1010 C.3    85  PRO85       0.0208
     48  CD        35.4960   88.7380   63.3710 C.3    85  PRO85       0.0893
     49  N         32.6470   92.4700   63.1200 N.am   86  GLY86      -0.1943
     50  CA        32.3610   93.7170   63.8150 C.3    86  GLY86       0.2014
     51  C         33.5710   94.6320   63.8700 C.2    86  GLY86       0.2638
     52  O         34.2840   94.7590   62.8830 O.2    86  GLY86      -0.2714
     53  N         33.7840   95.2840   65.0120 N.am   87  ASP87      -0.1971
     54  CA        34.9420   96.1590   65.2160 C.3    87  ASP87       0.1709
     55  C         35.9760   95.2790   65.9200 C.2    87  ASP87       0.2293
     56  O         35.6720   94.6440   66.9320 O.2    87  ASP87      -0.2864
     57  CB        34.5710   97.3480   66.1020 C.3    87  ASP87       0.1436
     58  CG        35.7250   98.3150   66.2980 C.2    87  ASP87       0.3671
     59  OD1       36.7120   97.9520   66.9740 O.co2  87  ASP87      -0.2456
     60  OD2       35.6400   99.4450   65.7750 O.co2  87  ASP87      -0.2456
     61  N         36.3590   95.6450   70.0080 N.3    90  VAL90      -0.1231
     62  CA        35.1750   95.6580   70.8570 C.3    90  VAL90       0.1692
     63  C         34.8000   94.2740   71.3880 C.2    90  VAL90       0.2592
     64  O         34.4540   93.3820   70.6200 O.2    90  VAL90      -0.2718
     65  CB        33.9510   96.2170   70.0850 C.3    90  VAL90       0.0266
     66  CG1       32.6840   96.0610   70.9240 C.3    90  VAL90       0.0020
     67  CG2       34.1860   97.6740   69.7210 C.3    90  VAL90       0.0020
     68  N         34.8550   94.1120   72.7050 N.am   91  ALA91      -0.1966
     69  CA        34.5070   92.8440   73.3380 C.3    91  ALA91       0.1728
     70  C         35.3670   91.6940   72.8310 C.2    91  ALA91       0.2616
     71  O         34.8720   90.6040   72.5520 O.2    91  ALA91      -0.2715
     72  CB        33.0280   92.5360   73.1190 C.3    91  ALA91       0.0334
     73  N         36.6560   91.9730   72.6830 N.am   92  THR92      -0.1951
     74  CA        37.6490   90.9910   72.2660 C.3    92  THR92       0.1897
     75  C         38.8660   91.4090   73.0730 C.2    92  THR92       0.2313
     76  O         38.8280   92.4210   73.7710 O.2    92  THR92      -0.2863
     77  CB        38.0330   91.1020   70.7730 C.3    92  THR92       0.1794
     78  OG1       38.7210   92.3380   70.5520 O.3    92  THR92      -0.2208
     79  CG2       36.8030   91.0350   69.8850 C.3    92  THR92       0.0378
     80  N         29.7740   98.0170   64.7930 N.3   115  SER115     -0.1202
     81  CA        29.8540   97.0850   65.9180 C.3   115  SER115      0.2020
     82  C         28.5030   96.8840   66.5920 C.2   115  SER115      0.2618
     83  O         27.6640   97.7870   66.5960 O.2   115  SER115     -0.2717
     84  CB        30.8500   97.6340   66.9500 C.3   115  SER115      0.2103
     85  OG        30.7280   96.9900   68.2050 O.3   115  SER115     -0.2182
     86  N         28.2990   95.7090   67.1820 N.am  116  ILE116     -0.1979
     87  CA        27.0400   95.4340   67.8640 C.3   116  ILE116      0.1595
     88  C         26.8650   96.4100   69.0240 C.2   116  ILE116      0.2287
     89  O         25.7450   96.7320   69.4140 O.2   116  ILE116     -0.2864
     90  CB        26.9840   93.9720   68.4080 C.3   116  ILE116      0.0276
     91  CG1       25.5840   93.6790   68.9510 C.3   116  ILE116      0.0022
     92  CG2       28.0280   93.7600   69.5090 C.3   116  ILE116      0.0022
     93  CD1       24.5030   93.7010   67.8840 C.3   116  ILE116      0.0001
     94  N         26.1560   90.5360   75.9080 N.3   165  PHE165     -0.1227
     95  CA        26.7510   89.8160   74.7900 C.3   165  PHE165      0.1736
     96  C         26.4150   88.3560   75.0910 C.2   165  PHE165      0.2595
     97  O         26.3620   87.9590   76.2550 O.2   165  PHE165     -0.2718
     98  CB        28.2750   90.0040   74.7810 C.3   165  PHE165      0.0547
     99  CG        28.7210   91.4130   74.4780 C.ar  165  PHE165     -0.0202
    100  CD1       28.5780   91.9460   73.1970 C.ar  165  PHE165     -0.0042
    101  CD2       29.2920   92.2060   75.4710 C.ar  165  PHE165     -0.0042
    102  CE1       29.0000   93.2470   72.9060 C.ar  165  PHE165     -0.0003
    103  CE2       29.7170   93.5110   75.1910 C.ar  165  PHE165     -0.0003
    104  CZ        29.5700   94.0290   73.9030 C.ar  165  PHE165     -0.0000
    105  N         26.1730   87.5540   74.0630 N.am  166  LEU166     -0.1966
    106  CA        25.8540   86.1570   74.2980 C.3   166  LEU166      0.1728
    107  C         27.0350   85.2730   73.9030 C.2   166  LEU166      0.2616
    108  O         27.8060   85.6070   72.9990 O.2   166  LEU166     -0.2715
    109  CB        24.5690   85.7760   73.5510 C.3   166  LEU166      0.0311
    110  CG        23.3430   86.6170   73.9570 C.3   166  LEU166      0.0022
    111  CD1       22.0750   86.0110   73.3470 C.3   166  LEU166      0.0001
    112  CD2       23.2110   86.6670   75.4820 C.3   166  LEU166      0.0001
    113  N         27.1780   84.1480   74.5950 N.am  167  ASP167     -0.1957
    114  CA        28.2980   83.2420   74.3680 C.3   167  ASP167      0.1840
    115  C         28.4020   82.6700   72.9580 C.2   167  ASP167      0.2621
    116  O         27.4200   82.5780   72.2220 O.2   167  ASP167     -0.2715
    117  CB        28.2550   82.1010   75.3900 C.3   167  ASP167      0.1450
    118  CG        29.6410   81.6530   75.8260 C.2   167  ASP167      0.3671
    119  OD1       30.6410   82.1750   75.2960 O.co2 167  ASP167     -0.2456
    120  OD2       29.7290   80.7790   76.7080 O.co2 167  ASP167     -0.2456
    121  N         29.6190   82.2910   72.5950 N.am  168  ILE168     -0.1977
    122  CA        29.8880   81.7220   71.2900 C.3   168  ILE168      0.1596
    123  C         31.0280   80.7210   71.3970 C.2   168  ILE168      0.2287
    124  O         32.0080   80.9540   72.1010 O.2   168  ILE168     -0.2864
    125  CB        30.2650   82.8290   70.2640 C.3   168  ILE168      0.0276
    126  CG1       30.7250   82.1940   68.9500 C.3   168  ILE168      0.0022
    127  CG2       31.3540   83.7250   70.8320 C.3   168  ILE168      0.0022
    128  CD1       30.9750   83.2020   67.8420 C.3   168  ILE168      0.0001
    129  N         17.7850   91.5950   69.9290 N.3   206  LEU206     -0.1245
    130  CA        18.2400   92.0980   68.6360 C.3   206  LEU206      0.1561
    131  C         18.9990   90.9420   67.9990 C.2   206  LEU206      0.2260
    132  O         20.0120   90.4850   68.5270 O.2   206  LEU206     -0.2867
    133  CB        19.1710   93.3090   68.8100 C.3   206  LEU206      0.0270
    134  CG        19.7750   93.8860   67.5180 C.3   206  LEU206      0.0019
    135  CD1       18.6560   94.2290   66.5410 C.3   206  LEU206      0.0001
    136  CD2       20.6080   95.1310   67.8380 C.3   206  LEU206      0.0001
    137  N         20.7800   89.3340   64.4400 N.3   208  ARG208     -0.1231
    138  CA        21.3270   89.6020   63.1180 C.3   208  ARG208      0.1694
    139  C         21.3410   91.0870   62.7400 C.2   208  ARG208      0.2591
    140  O         20.8820   91.4780   61.6640 O.2   208  ARG208     -0.2718
    141  CB        20.5580   88.7860   62.0670 C.3   208  ARG208      0.0321
    142  CG        20.5360   87.2760   62.3540 C.3   208  ARG208      0.0489
    143  CD        19.7070   86.5180   61.3130 C.3   208  ARG208      0.2205
    144  NE        18.3930   87.1300   61.1460 N.pl3 208  ARG208     -0.0865
    145  CZ        17.4100   87.0640   62.0380 C.cat 208  ARG208      0.5346
    146  NH1       17.5740   86.3960   63.1720 N.pl3 208  ARG208      0.1354
    147  NH2       16.2720   87.7030   61.8120 N.pl3 208  ARG208      0.1354
    148  N         21.8650   91.9160   63.6390 N.am  209  ALA209     -0.1980
    149  CA        21.9810   93.3450   63.3740 C.3   209  ALA209      0.1597
    150  C         22.8780   93.4260   62.1440 C.2   209  ALA209      0.2287
    151  O         23.7570   92.5840   61.9650 O.2   209  ALA209     -0.2864
    152  CB        22.6460   94.0530   64.5660 C.3   209  ALA209      0.0319
    153  N         23.6850   85.6090   65.0390 N.3   233  PRO233     -0.2102
    154  CA        23.8960   85.9530   66.4480 C.3   233  PRO233      0.1504
    155  C         22.7820   86.7830   67.0820 C.2   233  PRO233      0.2576
    156  O         22.0610   87.5070   66.3960 O.2   233  PRO233     -0.2718
    157  CB        25.2170   86.7070   66.4100 C.3   233  PRO233      0.0282
    158  CG        25.0850   87.4840   65.1350 C.3   233  PRO233      0.0208
    159  CD        24.5170   86.4580   64.1650 C.3   233  PRO233      0.0893
    160  N         22.6620   86.6800   68.4020 N.am  234  HIS234     -0.1962
    161  CA        21.6540   87.4150   69.1590 C.3   234  HIS234      0.1787
    162  C         22.3290   88.1520   70.3060 C.2   234  HIS234      0.2620
    163  O         23.4240   87.7970   70.7260 O.2   234  HIS234     -0.2715
    164  CB        20.6450   86.4700   69.8340 C.3   234  HIS234      0.0785
    165  CG        19.8090   85.6560   68.8940 C.ar  234  HIS234      0.0821
    166  ND1       18.8710   84.7500   69.3440 N.ar  234  HIS234     -0.2267
    167  CD2       19.7590   85.6090   67.5420 C.ar  234  HIS234      0.1154
    168  CE1       18.2800   84.1790   68.3090 C.ar  234  HIS234      0.1986
    169  NE2       18.8000   84.6830   67.2040 N.ar  234  HIS234     -0.2212
    170  N         21.6650   89.1860   70.8010 N.am  235  ILE235     -0.1977
    171  CA        22.1330   89.8820   71.9860 C.3   235  ILE235      0.1596
    172  C         20.8580   90.0700   72.7740 C.2   235  ILE235      0.2287
    173  O         19.7720   90.1560   72.1950 O.2   235  ILE235     -0.2864
    174  CB        22.7450   91.2890   71.7360 C.3   235  ILE235      0.0276
    175  CG1       21.8020   92.1440   70.8930 C.3   235  ILE235      0.0022
    176  CG2       24.1210   91.1540   71.1290 C.3   235  ILE235      0.0022
    177  CD1       21.9730   93.6370   71.1440 C.3   235  ILE235      0.0001
@<TRIPOS>BOND
     1    18    16   ar
     2    18    19   ar
     3    20    19    1
     4    16    14   ar
     5    19    17   ar
     6    12    11    2
     7    11    10    1
     8    14    13    1
     9    14    15   ar
    10    17    15   ar
    11    13    10    1
    12    10     9    1
    13     9     3   am
    14     1     2    1
    15     3     4    2
    16     3     2    1
    17   144   143    1
    18   144   145    2
    19   143   142    1
    20   140   139    2
    21     2     5    1
    22     5     6    1
    23   147   145    1
    24   151   150    2
    25   145   146    1
    26   141   142    1
    27   141   138    1
    28   150   149    1
    29    40    39    1
    30    43    42    1
    31    43    46    1
    32    43    44    1
    33     6     7    1
    34     6     8    1
    35   139   138    1
    36   139   148   am
    37    42    48    1
    38    36    37    2
    39    36    35    1
    40    52    51    2
    41    47    46    1
    42    47    48    1
    43   138   137    1
    44    49    44   am
    45    49    50    1
    46    39    41    1
    47    39    38    1
    48   149   148    1
    49   149   152    1
    50    44    45    2
    51    50    51    1
    52    35    38    1
    53    35    34    1
    54    51    53   am
    55   159   153    1
    56   159   158    1
    57    80    81    1
    58    31    30    2
    59    34    30   am
    60    53    54    1
    61   153   154    1
    62   158   157    1
    63    54    55    1
    64    54    57    1
    65    30    29    1
    66    60    58   ar
    67    81    82    1
    68    81    84    1
    69    55    56    2
    70    57    58    1
    71    33    32    1
    72    58    59   ar
    73    32    29    1
    74   156   155    2
    75   157   154    1
    76   154   155    1
    77   135   134    1
    78    82    83    2
    79    82    86   am
    80    29    28    1
    81    28    23   am
    82    84    85    1
    83    26    25    1
    84   155   160   am
    85    86    87    1
    86   169   167   ar
    87   169   168   ar
    88    21    22    1
    89   134   136    1
    90   134   133    1
    91   167   165   ar
    92   128   126    1
    93    87    90    1
    94    87    88    1
    95    93    91    1
    96   131   132    2
    97   131   130    1
    98    23    22    1
    99    23    24    2
   100   168   166   ar
   101    22    25    1
   102    25    27    1
   103   160   161    1
   104    90    91    1
   105    90    92    1
   106   130   133    1
   107   130   129    1
   108   165   166   ar
   109   165   164    1
   110   126   125    1
   111    88    89    2
   112   161   164    1
   113   161   162    1
   114    67    65    1
   115    79    77    1
   116    61    62    1
   117    65    62    1
   118    65    66    1
   119   125   127    1
   120   125   122    1
   121   162   163    2
   122   162   170   am
   123    78    77    1
   124    64    63    2
   125    77    74    1
   126   170   171    1
   127    62    63    1
   128   175   177    1
   129   175   174    1
   130   176   174    1
   131   122   123    1
   132   122   121    1
   133    63    68   am
   134   123   124    2
   135   174   171    1
   136   171   172    1
   137   173   172    2
   138   116   115    2
   139    74    73    1
   140    74    75    1
   141    71    70    2
   142   121   115   am
   143    73    70   am
   144    68    69    1
   145    70    69    1
   146   102   100   ar
   147   102   104   ar
   148   115   114    1
   149   108   107    2
   150    75    76    2
   151    72    69    1
   152   100    99   ar
   153   111   110    1
   154   109   110    1
   155   109   106    1
   156   104   103   ar
   157   107   106    1
   158   107   113   am
   159   110   112    1
   160   105   106    1
   161   105    96   am
   162   114   113    1
   163   114   117    1
   164    99    98    1
   165    99   101   ar
   166    98    95    1
   167    95    96    1
   168    95    94    1
   169    96    97    2
   170   103   101   ar
   171   119   118   ar
   172   117   118    1
   173   118   120   ar
