@<TRIPOS>MOLECULE
tmp/2p9eB01.pdb
 99 93 0 0 0
SMALL
GASTEIGER

@<TRIPOS>ATOM
      1  N         44.0810   47.6390   -8.7960 N.3    54  ARG54      -0.1231
      2  CA        44.5520   46.4070   -9.4950 C.3    54  ARG54       0.1694
      3  C         45.9790   46.4670  -10.1060 C.2    54  ARG54       0.2592
      4  O         46.8640   47.0880   -9.5260 O.2    54  ARG54      -0.2718
      5  CB        43.4920   45.7940  -10.4330 C.3    54  ARG54       0.0321
      6  CG        42.6800   46.7810  -11.1900 C.3    54  ARG54       0.0489
      7  CD        41.4120   46.1600  -11.7340 C.3    54  ARG54       0.2205
      8  NE        41.6200   45.6070  -13.0750 N.pl3  54  ARG54      -0.0865
      9  CZ        40.7390   45.7030  -14.0710 C.cat  54  ARG54       0.5346
     10  NH1       41.0100   45.1820  -15.2620 N.pl3  54  ARG54       0.1354
     11  NH2       39.6000   46.3380  -13.8770 N.pl3  54  ARG54       0.1354
     12  N         46.2030   45.8240  -11.2500 N.am   55  SER55      -0.1952
     13  CA        47.5500   45.7090  -11.8140 C.3    55  SER55       0.1924
     14  C         48.3100   47.0100  -11.7820 C.2    55  SER55       0.2314
     15  O         49.4300   47.0440  -11.3310 O.2    55  SER55      -0.2863
     16  CB        47.5280   45.1650  -13.2480 C.3    55  SER55       0.2116
     17  OG        46.2610   45.3470  -13.8860 O.3    55  SER55      -0.2180
     18  N         42.6260   43.5050   -6.1000 N.3    76  PHE76      -0.1227
     19  CA        41.5330   42.9230   -6.8910 C.3    76  PHE76       0.1736
     20  C         42.1190   42.3840   -8.2050 C.2    76  PHE76       0.2595
     21  O         41.9100   42.9150   -9.2960 O.2    76  PHE76      -0.2718
     22  CB        40.4660   44.0080   -7.1410 C.3    76  PHE76       0.0547
     23  CG        39.5480   44.2200   -5.9700 C.ar   76  PHE76      -0.0202
     24  CD1       39.9600   44.9730   -4.8670 C.ar   76  PHE76      -0.0042
     25  CD2       38.2790   43.6360   -5.9510 C.ar   76  PHE76      -0.0042
     26  CE1       39.1270   45.1350   -3.7950 C.ar   76  PHE76      -0.0003
     27  CE2       37.4390   43.7880   -4.8800 C.ar   76  PHE76      -0.0003
     28  CZ        37.8550   44.5400   -3.8030 C.ar   76  PHE76      -0.0000
     29  N         42.8620   41.3040   -8.0590 N.am   77  ALA77      -0.1966
     30  CA        43.7870   40.8830   -9.0600 C.3    77  ALA77       0.1728
     31  C         44.5360   39.7140   -8.4810 C.2    77  ALA77       0.2616
     32  O         44.2940   39.3470   -7.3360 O.2    77  ALA77      -0.2715
     33  CB        44.7250   42.0180   -9.3520 C.3    77  ALA77       0.0334
     34  N         45.4400   39.1200   -9.2470 N.am   78  ILE78      -0.1963
     35  CA        46.2430   38.0060   -8.7290 C.3    78  ILE78       0.1727
     36  C         47.5430   38.5230   -8.2110 C.2    78  ILE78       0.2616
     37  O         47.9640   38.1470   -7.1370 O.2    78  ILE78      -0.2715
     38  CB        46.6210   36.9700   -9.8120 C.3    78  ILE78       0.0290
     39  CG1       45.3780   36.2410  -10.3200 C.3    78  ILE78       0.0022
     40  CG2       47.6800   35.9920   -9.2830 C.3    78  ILE78       0.0023
     41  CD1       45.6700   35.3560  -11.4760 C.3    78  ILE78       0.0001
     42  N         48.1960   39.3690   -8.9980 N.am   79  GLY79      -0.1955
     43  CA        49.5480   39.8270   -8.6690 C.3    79  GLY79       0.1869
     44  C         49.5190   40.7530   -7.4810 C.2    79  GLY79       0.2309
     45  O         48.5320   41.3840   -7.2580 O.2    79  GLY79      -0.2863
     46  N         52.7520   45.1540   -7.5010 N.3    82  GLN82      -0.1245
     47  CA        52.5930   46.5790   -7.6690 C.3    82  GLN82       0.1566
     48  C         52.4450   47.2470   -6.2790 C.2    82  GLN82       0.2260
     49  O         52.3750   48.4830   -6.1780 O.2    82  GLN82      -0.2867
     50  CB        51.3830   46.8340   -8.5890 C.3    82  GLN82       0.0367
     51  CG        49.9660   46.5020   -8.0190 C.3    82  GLN82       0.0905
     52  CD        49.5710   45.0280   -8.0190 C.2    82  GLN82       0.2608
     53  OE1       48.3710   44.6950   -8.0130 O.2    82  GLN82      -0.2717
     54  NE2       50.5550   44.1430   -7.9940 N.am   82  GLN82      -0.0878
     55  N         40.1650   32.9380  -11.3400 N.3   102  ASN102     -0.1240
     56  CA        40.2290   32.9810  -12.7790 C.3   102  ASN102      0.1653
     57  C         39.9880   31.5820  -13.3520 C.2   102  ASN102      0.2266
     58  O         39.9280   31.3870  -14.5620 O.2   102  ASN102     -0.2867
     59  CB        41.6200   33.4990  -13.2310 C.3   102  ASN102      0.1155
     60  CG        41.7950   35.0110  -13.0180 C.2   102  ASN102      0.2627
     61  OD1       41.0880   35.6040  -12.2190 O.2   102  ASN102     -0.2716
     62  ND2       42.7470   35.6230  -13.7200 N.am  102  ASN102     -0.0877
     63  N         48.3670   37.6940  -22.1540 N.3   286  HIS286     -0.1241
     64  CA        48.1140   37.4620  -20.7330 C.3   286  HIS286      0.1621
     65  C         46.6760   37.7950  -20.3810 C.2   286  HIS286      0.2264
     66  O         46.4610   38.5900  -19.4770 O.2   286  HIS286     -0.2867
     67  CB        49.0290   38.3410  -19.8570 C.3   286  HIS286      0.0745
     68  CG        49.2550   37.7940  -18.4720 C.ar  286  HIS286      0.0817
     69  ND1       50.4970   37.7830  -17.8670 N.ar  286  HIS286     -0.2268
     70  CD2       48.4000   37.2150  -17.5850 C.ar  286  HIS286      0.1154
     71  CE1       50.3920   37.2410  -16.6620 C.ar  286  HIS286      0.1986
     72  NE2       49.1330   36.8830  -16.4680 N.ar  286  HIS286     -0.2212
     73  N         43.1080   35.0800  -17.7510 N.3   289  GLY289     -0.1210
     74  CA        42.2060   35.2370  -16.6270 C.3   289  GLY289      0.1956
     75  C         41.3110   36.4500  -16.7560 C.2   289  GLY289      0.2612
     76  O         40.5820   36.7870  -15.8230 O.2   289  GLY289     -0.2717
     77  N         41.3390   37.0900  -17.9140 N.am  290  SER290     -0.1952
     78  CA        40.6220   38.3290  -18.1540 C.3   290  SER290      0.1924
     79  C         39.2060   38.1390  -18.6470 C.2   290  SER290      0.2314
     80  O         38.9240   38.2420  -19.8380 O.2   290  SER290     -0.2863
     81  CB        41.3620   39.1860  -19.1790 C.3   290  SER290      0.2116
     82  OG        42.4840   39.7560  -18.5520 O.3   290  SER290     -0.2180
     83  N         36.3930   38.9020  -13.2580 N.3   295  GLN295     -0.1245
     84  CA        36.3590   40.1750  -12.5150 C.3   295  GLN295      0.1566
     85  C         35.3160   40.1530  -11.3830 C.2   295  GLN295      0.2260
     86  O         35.5130   40.7760  -10.3480 O.2   295  GLN295     -0.2867
     87  CB        36.1880   41.4060  -13.4330 C.3   295  GLN295      0.0367
     88  CG        37.4440   41.7900  -14.2420 C.3   295  GLN295      0.0905
     89  CD        38.6720   42.1060  -13.3630 C.2   295  GLN295      0.2608
     90  OE1       38.6210   42.9520  -12.4870 O.2   295  GLN295     -0.2717
     91  NE2       39.7740   41.4360  -13.6250 N.am  295  GLN295     -0.0878
     92  N         36.7550   38.0840   -8.3690 N.3   298  ILE298     -0.1245
     93  CA        37.7750   38.9000   -7.7190 C.3   298  ILE298      0.1561
     94  C         37.0900   40.0150   -6.9520 C.2   298  ILE298      0.2260
     95  O         37.4620   40.3390   -5.8320 O.2   298  ILE298     -0.2867
     96  CB        38.6570   39.5550   -8.7300 C.3   298  ILE298      0.0252
     97  CG1       39.3750   38.4870   -9.5640 C.3   298  ILE298      0.0019
     98  CG2       39.6040   40.4990   -8.0410 C.3   298  ILE298      0.0019
     99  CD1       40.4230   39.0320  -10.5800 C.3   298  ILE298      0.0001
@<TRIPOS>BOND
     1    63    64    1
     2    64    65    1
     3    64    67    1
     4    65    66    2
     5    67    68    1
     6    80    79    2
     7    81    82    1
     8    81    78    1
     9    79    78    1
    10    68    69   ar
    11    68    70   ar
    12    78    77    1
    13    77    75   am
    14    69    71   ar
    15    73    74    1
    16    70    72   ar
    17    75    74    1
    18    75    76    2
    19    71    72   ar
    20    10     9    1
    21    58    57    2
    22    88    87    1
    23    88    89    1
    24     9    11    1
    25     9     8    2
    26    17    16    1
    27    62    60   am
    28    91    89   am
    29    87    84    1
    30    89    90    2
    31    57    56    1
    32    83    84    1
    33    16    13    1
    34    59    60    1
    35    59    56    1
    36     8     7    1
    37    60    61    2
    38    56    55    1
    39    84    85    1
    40    13    14    1
    41    13    12    1
    42    14    15    2
    43     7     6    1
    44    41    39    1
    45    85    86    2
    46    12     3   am
    47     6     5    1
    48    99    97    1
    49     5     2    1
    50    39    38    1
    51     3     4    2
    52     3     2    1
    53    38    40    1
    54    38    35    1
    55    97    96    1
    56     2     1    1
    57    33    30    1
    58    21    20    2
    59    34    35    1
    60    34    31   am
    61    30    31    1
    62    30    29    1
    63    42    43    1
    64    42    36   am
    65    96    98    1
    66    96    93    1
    67    35    36    1
    68    43    44    1
    69    50    51    1
    70    50    47    1
    71    31    32    2
    72    92    93    1
    73    36    37    2
    74    20    29   am
    75    20    19    1
    76    52    51    1
    77    52    53    2
    78    52    54   am
    79    93    94    1
    80    47    46    1
    81    47    48    1
    82    44    45    2
    83    22    19    1
    84    22    23    1
    85    94    95    2
    86    19    18    1
    87    48    49    2
    88    23    25   ar
    89    23    24   ar
    90    25    27   ar
    91    27    28   ar
    92    24    26   ar
    93    28    26   ar
