@<TRIPOS>MOLECULE
tmp/2p9iB00.pdb
 173 165 0 0 0
SMALL
GASTEIGER

@<TRIPOS>ATOM
      1  N        -28.1710   25.4860   17.6140 N.3     4  ASP4       -0.1239
      2  CA       -27.8760   26.6270   18.4760 C.3     4  ASP4        0.1674
      3  C        -26.3650   26.8200   18.5820 C.2     4  ASP4        0.2266
      4  O        -25.6760   26.0490   19.2550 O.2     4  ASP4       -0.2867
      5  CB       -28.4910   26.3930   19.8660 C.3     4  ASP4        0.1410
      6  CG       -28.0850   27.4500   20.8850 C.2     4  ASP4        0.3668
      7  OD1      -28.0280   28.6440   20.5260 O.co2   4  ASP4       -0.2456
      8  OD2      -27.8400   27.0820   22.0560 O.co2   4  ASP4       -0.2456
      9  N        -23.2680   28.5210   20.0180 N.3     6  GLY6       -0.1210
     10  CA       -22.8610   29.3060   21.1670 C.3     6  GLY6        0.1956
     11  C        -21.4790   29.9010   20.9880 C.2     6  GLY6        0.2613
     12  O        -20.7840   29.5960   20.0190 O.2     6  GLY6       -0.2717
     13  N        -21.0780   30.7490   21.9310 N.am    7  THR7       -0.1938
     14  CA       -19.7720   31.3950   21.8840 C.3     7  THR7        0.2028
     15  C        -18.6400   30.3940   22.0690 C.2     7  THR7        0.2643
     16  O        -17.4720   30.7320   21.8710 O.2     7  THR7       -0.2714
     17  CB       -19.6320   32.4590   22.9830 C.3     7  THR7        0.1808
     18  OG1      -20.8050   33.2760   23.0120 O.3     7  THR7       -0.2208
     19  CG2      -18.4240   33.3460   22.7070 C.3     7  THR7        0.0379
     20  N        -18.9840   29.1660   22.4510 N.am    8  GLY8       -0.1939
     21  CA       -17.9640   28.1520   22.6580 C.3     8  GLY8        0.2014
     22  C        -18.3380   26.7550   22.1990 C.2     8  GLY8        0.2638
     23  O        -17.4930   26.0230   21.6900 O.2     8  GLY8       -0.2714
     24  N        -19.5970   26.3740   22.3870 N.am    9  PHE9       -0.1973
     25  CA       -20.0610   25.0500   21.9800 C.3     9  PHE9        0.1639
     26  C        -21.2840   25.1390   21.0770 C.2     9  PHE9        0.2290
     27  O        -21.9710   26.1600   21.0410 O.2     9  PHE9       -0.2864
     28  CB       -20.3910   24.1930   23.2070 C.3     9  PHE9        0.0560
     29  CG       -19.2070   23.9210   24.0920 C.ar    9  PHE9       -0.0200
     30  CD1      -18.7310   24.8980   24.9670 C.ar    9  PHE9       -0.0042
     31  CD2      -18.5440   22.6970   24.0290 C.ar    9  PHE9       -0.0042
     32  CE1      -17.6110   24.6600   25.7630 C.ar    9  PHE9       -0.0003
     33  CE2      -17.4240   22.4500   24.8190 C.ar    9  PHE9       -0.0003
     34  CZ       -16.9580   23.4350   25.6870 C.ar    9  PHE9       -0.0000
     35  N        -24.9440   23.3740   20.0310 N.3    11  LYS11      -0.1245
     36  CA       -26.0100   22.4450   20.3890 C.3    11  LYS11       0.1561
     37  C        -26.9760   22.2710   19.2180 C.2    11  LYS11       0.2260
     38  O        -27.7800   23.1540   18.9250 O.2    11  LYS11      -0.2867
     39  CB       -26.7680   22.9420   21.6280 C.3    11  LYS11       0.0271
     40  CG       -26.0040   22.7860   22.9450 C.3    11  LYS11       0.0035
     41  CD       -24.8380   23.7540   23.0620 C.3    11  LYS11       0.0206
     42  CE       -25.3230   25.1840   23.2300 C.3    11  LYS11       0.1093
     43  NZ       -24.1940   26.1460   23.3870 N.3    11  LYS11      -0.1314
     44  N        -28.6560   34.7160   30.7530 N.3    68  ASP68      -0.1239
     45  CA       -27.9710   33.6540   30.0440 C.3    68  ASP68       0.1674
     46  C        -26.4660   33.7880   30.1260 C.2    68  ASP68       0.2266
     47  O        -25.8800   34.7260   29.5860 O.2    68  ASP68      -0.2867
     48  CB       -28.3980   33.6230   28.5800 C.3    68  ASP68       0.1410
     49  CG       -27.8420   32.4250   27.8530 C.2    68  ASP68       0.3668
     50  OD1      -26.6010   32.3390   27.7300 O.co2  68  ASP68      -0.2456
     51  OD2      -28.6380   31.5630   27.4180 O.co2  68  ASP68      -0.2456
     52  N        -22.9550   31.8320   29.3170 N.3    70  GLY70      -0.1210
     53  CA       -22.3490   30.7210   28.6140 C.3    70  GLY70       0.1956
     54  C        -20.8420   30.6800   28.7420 C.2    70  GLY70       0.2612
     55  O        -20.2940   30.9330   29.8160 O.2    70  GLY70      -0.2717
     56  N        -20.1690   30.3730   27.6390 N.am   71  ASP71      -0.1959
     57  CA       -18.7150   30.2720   27.6350 C.3    71  ASP71       0.1840
     58  C        -17.9860   31.5990   27.4420 C.2    71  ASP71       0.2623
     59  O        -17.0920   31.9430   28.2160 O.2    71  ASP71      -0.2715
     60  CB       -18.2760   29.2860   26.5530 C.3    71  ASP71       0.1450
     61  CG       -16.7710   29.1800   26.4400 C.2    71  ASP71       0.3671
     62  OD1      -16.1280   28.6900   27.3940 O.co2  71  ASP71      -0.2456
     63  OD2      -16.2300   29.5940   25.3910 O.co2  71  ASP71      -0.2456
     64  N        -18.3710   32.3450   26.4130 N.am   72  GLY72      -0.1940
     65  CA       -17.7110   33.6080   26.1430 C.3    72  GLY72       0.2014
     66  C        -18.3130   34.8440   26.7770 C.2    72  GLY72       0.2638
     67  O        -17.5790   35.7120   27.2550 O.2    72  GLY72      -0.2714
     68  N        -19.6380   34.9340   26.7950 N.am   73  VAL73      -0.1977
     69  CA       -20.2960   36.1080   27.3570 C.3    73  VAL73       0.1596
     70  C        -21.5360   35.7750   28.1860 C.2    73  VAL73       0.2287
     71  O        -22.0590   34.6570   28.1330 O.2    73  VAL73      -0.2864
     72  CB       -20.6850   37.0960   26.2230 C.3    73  VAL73       0.0276
     73  CG1      -21.6820   36.4370   25.2750 C.3    73  VAL73       0.0022
     74  CG2      -21.2540   38.3880   26.8100 C.3    73  VAL73       0.0022
     75  N        -18.0950   31.7630   31.4850 N.3    96  GLY96      -0.1225
     76  CA       -17.3630   30.5140   31.5880 C.3    96  GLY96       0.1811
     77  C        -15.8510   30.5700   31.4720 C.2    96  GLY96       0.2280
     78  O        -15.1450   30.1770   32.4040 O.2    96  GLY96      -0.2866
     79  N        -10.8790   23.4200   33.2620 N.3   124  ARG124     -0.1245
     80  CA       -12.2800   23.6920   32.9620 C.3   124  ARG124      0.1563
     81  C        -13.1190   22.5440   33.5140 C.2   124  ARG124      0.2260
     82  O        -14.2240   22.7550   34.0020 O.2   124  ARG124     -0.2867
     83  CB       -12.5200   23.8080   31.4520 C.3   124  ARG124      0.0307
     84  CG       -14.0010   23.9020   31.0690 C.3   124  ARG124      0.0489
     85  CD       -14.2040   23.9760   29.5540 C.3   124  ARG124      0.2205
     86  NE       -13.7450   22.7640   28.8770 N.pl3 124  ARG124     -0.0865
     87  CZ       -14.4200   21.6180   28.8480 C.cat 124  ARG124      0.5346
     88  NH1      -15.5980   21.5240   29.4530 N.pl3 124  ARG124      0.1354
     89  NH2      -13.9110   20.5600   28.2300 N.pl3 124  ARG124      0.1354
     90  N        -13.4140   22.8400   37.2710 N.3   127  LYS127     -0.1231
     91  CA       -14.4040   23.8690   37.5250 C.3   127  LYS127      0.1693
     92  C        -15.8090   23.2730   37.4410 C.2   127  LYS127      0.2591
     93  O        -16.6180   23.4370   38.3550 O.2   127  LYS127     -0.2718
     94  CB       -14.2640   25.0010   36.4970 C.3   127  LYS127      0.0285
     95  CG       -15.2580   26.1440   36.6840 C.3   127  LYS127      0.0035
     96  CD       -15.3790   27.0170   35.4480 C.3   127  LYS127      0.0206
     97  CE       -15.9310   26.2210   34.2570 C.3   127  LYS127      0.1093
     98  NZ       -16.0640   27.0480   33.0130 N.3   127  LYS127     -0.1314
     99  N        -16.0900   22.5710   36.3470 N.am  128  GLU128     -0.1979
    100  CA       -17.4040   21.9730   36.1440 C.3   128  GLU128      0.1602
    101  C        -17.7840   20.9120   37.1750 C.2   128  GLU128      0.2287
    102  O        -18.9550   20.7810   37.5370 O.2   128  GLU128     -0.2864
    103  CB       -17.5080   21.3940   34.7240 C.3   128  GLU128      0.0415
    104  CG       -17.7940   22.4560   33.6650 C.3   128  GLU128      0.1163
    105  CD       -17.7380   21.9230   32.2390 C.2   128  GLU128      0.3649
    106  OE1      -18.2430   20.8070   31.9910 O.co2 128  GLU128     -0.2457
    107  OE2      -17.2040   22.6330   31.3570 O.co2 128  GLU128     -0.2457
    108  N        -16.5490   23.3430   41.2150 N.3   131  CYS131     -0.1235
    109  CA       -16.9000   24.7210   41.5350 C.3   131  CYS131      0.1677
    110  C        -18.3610   24.9480   41.8090 C.2   131  CYS131      0.2270
    111  O        -19.2180   24.2230   41.3120 O.2   131  CYS131     -0.2867
    112  CB       -16.4500   25.6630   40.4210 C.3   131  CYS131      0.0956
    113  SG       -14.7010   26.0510   40.4710 S.3   131  CYS131     -0.0801
    114  N        -27.9210   28.5940   30.0590 N.3   215  GLY215     -0.1210
    115  CA       -26.4910   28.4970   29.8090 C.3   215  GLY215      0.1956
    116  C        -25.7380   27.6160   30.7930 C.2   215  GLY215      0.2612
    117  O        -26.1540   27.4450   31.9430 O.2   215  GLY215     -0.2717
    118  N        -24.6200   27.0590   30.3380 N.am  216  GLY216     -0.1942
    119  CA       -23.8200   26.1870   31.1800 C.3   216  GLY216      0.2014
    120  C        -23.2950   26.8510   32.4390 C.2   216  GLY216      0.2639
    121  O        -23.2290   26.2170   33.4870 O.2   216  GLY216     -0.2714
    122  N        -22.9320   28.1280   32.3420 N.am  217  SER217     -0.1949
    123  CA       -22.4030   28.8630   33.4790 C.3   217  SER217      0.1924
    124  C        -23.4180   29.2160   34.5520 C.2   217  SER217      0.2314
    125  O        -23.0900   29.9080   35.5140 O.2   217  SER217     -0.2863
    126  CB       -21.7030   30.1290   33.0090 C.3   217  SER217      0.2116
    127  OG       -20.4910   29.8090   32.3560 O.3   217  SER217     -0.2180
    128  N        -25.1700   26.6880   35.8850 N.3   219  MET219     -0.1230
    129  CA       -25.3420   25.3890   36.5330 C.3   219  MET219      0.1702
    130  C        -24.7430   25.3050   37.9360 C.2   219  MET219      0.2592
    131  O        -25.0550   24.3850   38.6750 O.2   219  MET219     -0.2718
    132  CB       -24.7250   24.2790   35.6760 C.3   219  MET219      0.0401
    133  CG       -25.3950   24.0660   34.3290 C.3   219  MET219      0.0596
    134  SD       -27.2050   24.0040   34.4760 S.3   219  MET219     -0.1393
    135  CE       -27.5830   25.5300   33.6900 C.3   219  MET219      0.0692
    136  N        -23.8830   26.2560   38.2900 N.am  220  TYR220     -0.1963
    137  CA       -23.2270   26.2770   39.5940 C.3   220  TYR220      0.1756
    138  C        -24.1780   26.0730   40.7700 C.2   220  TYR220      0.2461
    139  O        -25.1150   26.8480   40.9590 O.2   220  TYR220     -0.2730
    140  CB       -22.4960   27.6080   39.8000 C.3   220  TYR220      0.0574
    141  CG       -21.2870   27.8190   38.9170 C.ar  220  TYR220     -0.0198
    142  CD1      -20.1160   27.0830   39.1100 C.ar  220  TYR220     -0.0009
    143  CD2      -21.3110   28.7680   37.8940 C.ar  220  TYR220     -0.0009
    144  CE1      -19.0020   27.2960   38.3010 C.ar  220  TYR220      0.0417
    145  CE2      -20.2130   28.9840   37.0860 C.ar  220  TYR220      0.0417
    146  CZ       -19.0600   28.2510   37.2880 C.ar  220  TYR220      0.1957
    147  OH       -17.9740   28.4770   36.4770 O.3   220  TYR220     -0.2866
    148  N        -23.9430   25.0340   41.5830 N.am  221  PRO221     -0.2727
    149  CA       -24.8260   24.8050   42.7290 C.3   221  PRO221      0.1402
    150  C        -24.8810   26.0700   43.5890 C.2   221  PRO221      0.2269
    151  O        -23.8360   26.6420   43.9350 O.2   221  PRO221     -0.2865
    152  CB       -24.1510   23.6450   43.4690 C.3   221  PRO221      0.0296
    153  CG       -23.5040   22.8760   42.3790 C.3   221  PRO221      0.0237
    154  CD       -22.9190   23.9800   41.4880 C.3   221  PRO221      0.0939
    155  N        -29.3930   24.1110   31.2500 N.3   261  LYS261     -0.1231
    156  CA       -28.0890   24.1340   30.5830 C.3   261  LYS261      0.1693
    157  C        -28.1990   24.3870   29.0770 C.2   261  LYS261      0.2592
    158  O        -27.3460   25.0290   28.4850 O.2   261  LYS261     -0.2718
    159  CB       -27.3840   22.7880   30.8040 C.3   261  LYS261      0.0285
    160  CG       -25.9600   22.7470   30.2500 C.3   261  LYS261      0.0035
    161  CD       -25.1690   21.5850   30.8150 C.3   261  LYS261      0.0206
    162  CE       -23.7590   21.6150   30.2760 C.3   261  LYS261      0.1093
    163  NZ       -22.9750   20.4650   30.7790 N.3   261  LYS261     -0.1314
    164  N        -29.2640   23.8990   28.4460 N.am  262  HIS262     -0.1976
    165  CA       -29.4330   24.0130   26.9710 C.3   262  HIS262      0.1656
    166  C        -30.8810   24.4450   26.7860 C.2   262  HIS262      0.2291
    167  O        -31.6360   23.8340   26.0140 O.2   262  HIS262     -0.2864
    168  CB       -29.2280   22.6150   26.3600 C.3   262  HIS262      0.0771
    169  CG       -27.8250   22.0560   26.5250 C.ar  262  HIS262      0.0820
    170  ND1      -27.5250   20.7210   26.3190 N.ar  262  HIS262     -0.2267
    171  CD2      -26.6310   22.6560   26.7860 C.ar  262  HIS262      0.1154
    172  CE1      -26.2140   20.5270   26.4330 C.ar  262  HIS262      0.1986
    173  NE2      -25.6430   21.6890   26.7150 N.ar  262  HIS262     -0.2212
@<TRIPOS>BOND
     1     1     2    1
     2     2     3    1
     3     2     5    1
     4     3     4    2
     5    38    37    2
     6    37    36    1
     7     5     6    1
     8     9    10    1
     9    12    11    2
    10    35    36    1
    11    36    39    1
    12     7     6   ar
    13     6     8   ar
    14    11    10    1
    15    11    13   am
    16    27    26    2
    17    26    25    1
    18    39    40    1
    19    23    22    2
    20    16    15    2
    21    14    13    1
    22    14    15    1
    23    14    17    1
    24    25    24    1
    25    25    28    1
    26    15    20   am
    27    22    24   am
    28    22    21    1
    29    20    21    1
    30    19    17    1
    31    40    41    1
    32    17    18    1
    33    41    42    1
    34    28    29    1
    35    42    43    1
    36    31    29   ar
    37    31    33   ar
    38    29    30   ar
    39    33    34   ar
    40    30    32   ar
    41    73    72    1
    42    63    61   ar
    43    34    32   ar
    44   167   166    2
    45    65    64    1
    46    65    66    1
    47    72    74    1
    48    72    69    1
    49   170   172   ar
    50   170   169   ar
    51   168   169    1
    52   168   165    1
    53    64    58   am
    54   172   173   ar
    55    61    60    1
    56    61    62   ar
    57   169   171   ar
    58    60    57    1
    59   173   171   ar
    60    66    68   am
    61    66    67    2
    62   166   165    1
    63    68    69    1
    64   165   164    1
    65    69    70    1
    66    51    49   ar
    67    58    57    1
    68    58    59    2
    69    57    56    1
    70    56    54   am
    71    50    49   ar
    72    49    48    1
    73    71    70    2
    74    89    87    1
    75   164   157   am
    76   158   157    2
    77    48    45    1
    78    53    54    1
    79    53    52    1
    80    54    55    2
    81    87    86    2
    82    87    88    1
    83    86    85    1
    84   157   156    1
    85    85    84    1
    86    47    46    2
    87   115   114    1
    88   115   116    1
    89    45    46    1
    90    45    44    1
    91   160   159    1
    92   160   161    1
    93   162   163    1
    94   162   161    1
    95   118   116   am
    96   118   119    1
    97   156   159    1
    98   156   155    1
    99   116   117    2
   100    84    83    1
   101   119   120    1
   102   107   105   ar
   103    83    80    1
   104    77    76    1
   105    77    78    2
   106    75    76    1
   107   106   105   ar
   108   105   104    1
   109   122   120   am
   110   122   123    1
   111   127   126    1
   112   120   121    2
   113    80    79    1
   114    80    81    1
   115   126   123    1
   116    98    97    1
   117   123   124    1
   118    81    82    2
   119   104   103    1
   120   135   134    1
   121    97    96    1
   122   133   134    1
   123   133   132    1
   124   124   125    2
   125   103   100    1
   126    96    95    1
   127   132   129    1
   128   128   129    1
   129   100    99    1
   130   100   101    1
   131    99    92   am
   132   147   146    1
   133    94    95    1
   134    94    91    1
   135   129   130    1
   136   145   146   ar
   137   145   143   ar
   138   101   102    2
   139    90    91    1
   140   146   144   ar
   141    92    91    1
   142    92    93    2
   143   143   141   ar
   144   130   136   am
   145   130   131    2
   146   136   137    1
   147   144   142   ar
   148   141   142   ar
   149   141   140    1
   150   137   140    1
   151   137   138    1
   152   112   113    1
   153   112   109    1
   154   138   139    2
   155   138   148   am
   156   108   109    1
   157   111   110    2
   158   154   148    1
   159   154   153    1
   160   109   110    1
   161   148   149    1
   162   153   152    1
   163   149   152    1
   164   149   150    1
   165   150   151    2
