@<TRIPOS>MOLECULE
tmp/2p9uB00.pdb
 104 99 0 0 0
SMALL
GASTEIGER

@<TRIPOS>ATOM
      1  N        -22.8840   29.7140   30.1940 N.3    25  GLY25      -0.1210
      2  CA       -22.1180   28.6440   29.6060 C.3    25  GLY25       0.1956
      3  C        -20.6560   28.7590   29.9610 C.2    25  GLY25       0.2612
      4  O        -20.3140   29.1410   31.0800 O.2    25  GLY25      -0.2717
      5  N        -19.7940   28.4340   29.0030 N.am   26  ASP26      -0.1959
      6  CA       -18.3610   28.4940   29.2130 C.3    26  ASP26       0.1840
      7  C        -17.8360   29.9020   29.0170 C.2    26  ASP26       0.2623
      8  O        -17.1440   30.4420   29.8800 O.2    26  ASP26      -0.2715
      9  CB       -17.6420   27.5520   28.2500 C.3    26  ASP26       0.1450
     10  CG       -16.1480   27.5030   28.5000 C.2    26  ASP26       0.3671
     11  OD1      -15.4210   26.7960   27.7700 O.co2  26  ASP26      -0.2456
     12  OD2      -15.6950   28.1780   29.4420 O.co2  26  ASP26      -0.2456
     13  N        -18.1860   30.5020   27.8850 N.am   27  GLY27      -0.1940
     14  CA       -17.7030   31.8380   27.5810 C.3    27  GLY27       0.2014
     15  C        -18.5290   33.0400   27.9910 C.2    27  GLY27       0.2638
     16  O        -17.9930   34.1410   28.0960 O.2    27  GLY27      -0.2714
     17  N        -19.8210   32.8600   28.2300 N.am   28  VAL28      -0.1977
     18  CA       -20.6390   34.0040   28.6030 C.3    28  VAL28       0.1596
     19  C        -21.9200   33.6840   29.3760 C.2    28  VAL28       0.2287
     20  O        -22.5150   32.6150   29.2400 O.2    28  VAL28      -0.2864
     21  CB       -20.9890   34.8470   27.3360 C.3    28  VAL28       0.0276
     22  CG1      -21.6700   33.9680   26.2960 C.3    28  VAL28       0.0022
     23  CG2      -21.8740   36.0350   27.7090 C.3    28  VAL28       0.0022
     24  N        -18.1420   29.9200   32.7340 N.3    51  GLY51      -0.1225
     25  CA       -17.4100   28.7050   33.0510 C.3    51  GLY51       0.1811
     26  C        -15.9010   28.6870   32.8890 C.2    51  GLY51       0.2280
     27  O        -15.2150   28.0440   33.6790 O.2    51  GLY51      -0.2866
     28  N        -13.1550   28.0130   35.8020 N.3    55  THR55      -0.1218
     29  CA       -12.1580   26.9760   35.5550 C.3    55  THR55       0.1862
     30  C        -10.7470   27.5670   35.6480 C.2    55  THR55       0.2287
     31  O         -9.8070   26.8970   36.0820 O.2    55  THR55      -0.2866
     32  CB       -12.3220   26.3300   34.1530 C.3    55  THR55       0.1770
     33  OG1      -13.6430   25.7980   34.0050 O.3    55  THR55      -0.2211
     34  CG2      -11.3130   25.2020   33.9710 C.3    55  THR55       0.0375
     35  N        -10.9620   21.7980   34.6190 N.3    79  ARG79      -0.1245
     36  CA       -12.3810   21.9640   34.3350 C.3    79  ARG79       0.1563
     37  C        -13.1160   20.7410   34.8580 C.2    79  ARG79       0.2260
     38  O        -14.1800   20.8560   35.4550 O.2    79  ARG79      -0.2867
     39  CB       -12.6320   22.0870   32.8360 C.3    79  ARG79       0.0307
     40  CG       -14.1080   22.0050   32.4640 C.3    79  ARG79       0.0489
     41  CD       -14.3170   22.0940   30.9720 C.3    79  ARG79       0.2205
     42  NE       -13.6470   21.0040   30.2790 N.pl3  79  ARG79      -0.0865
     43  CZ       -14.0540   19.7420   30.3200 C.cat  79  ARG79       0.5346
     44  NH1      -15.1350   19.4200   31.0210 N.pl3  79  ARG79       0.1354
     45  NH2      -13.3740   18.7980   29.6680 N.pl3  79  ARG79       0.1354
     46  N        -13.2980   21.1180   38.5020 N.3    82  LYS82      -0.1231
     47  CA       -14.3100   22.1200   38.8320 C.3    82  LYS82       0.1693
     48  C        -15.7060   21.5060   38.8090 C.2    82  LYS82       0.2591
     49  O        -16.4090   21.5090   39.8200 O.2    82  LYS82      -0.2718
     50  CB       -14.2630   23.2750   37.8300 C.3    82  LYS82       0.0285
     51  CG       -15.3300   24.3310   38.0740 C.3    82  LYS82       0.0035
     52  CD       -15.4670   25.2830   36.8960 C.3    82  LYS82       0.0206
     53  CE       -15.8590   24.5250   35.6430 C.3    82  LYS82       0.1093
     54  NZ       -16.1410   25.4250   34.5020 N.3    82  LYS82      -0.1314
     55  N        -16.0890   20.9900   37.6410 N.am   83  GLU83      -0.1979
     56  CA       -17.3890   20.3670   37.4210 C.3    83  GLU83       0.1602
     57  C        -17.7470   19.3570   38.5110 C.2    83  GLU83       0.2287
     58  O        -18.8900   19.3050   38.9910 O.2    83  GLU83      -0.2864
     59  CB       -17.4060   19.6640   36.0580 C.3    83  GLU83       0.0415
     60  CG       -17.6060   20.5880   34.8510 C.3    83  GLU83       0.1163
     61  CD       -17.6260   19.8390   33.5090 C.2    83  GLU83       0.3649
     62  OE1      -18.3210   18.8100   33.3980 O.co2  83  GLU83      -0.2457
     63  OE2      -16.9580   20.2820   32.5540 O.co2  83  GLU83      -0.2457
     64  N        -28.0520   26.6500   30.8540 N.3   170  GLY170     -0.1210
     65  CA       -26.6270   26.5460   30.6240 C.3   170  GLY170      0.1956
     66  C        -25.9430   25.6960   31.6640 C.2   170  GLY170      0.2612
     67  O        -26.3980   25.6130   32.8020 O.2   170  GLY170     -0.2717
     68  N        -24.8320   25.0830   31.2680 N.am  171  GLY171     -0.1942
     69  CA       -24.0920   24.2130   32.1600 C.3   171  GLY171      0.2014
     70  C        -23.4410   24.8860   33.3460 C.2   171  GLY171      0.2639
     71  O        -23.3370   24.2950   34.4160 O.2   171  GLY171     -0.2714
     72  N        -23.0110   26.1270   33.1700 N.am  172  SER172     -0.1949
     73  CA       -22.3420   26.8400   34.2410 C.3   172  SER172      0.1924
     74  C        -23.2770   27.2750   35.3740 C.2   172  SER172      0.2314
     75  O        -22.8750   28.0170   36.2640 O.2   172  SER172     -0.2863
     76  CB       -21.5950   28.0380   33.6570 C.3   172  SER172      0.2116
     77  OG       -20.7240   28.6170   34.6050 O.3   172  SER172     -0.2180
     78  N        -25.1900   24.7940   36.8650 N.3   174  MET174     -0.1230
     79  CA       -25.5170   23.5170   37.4790 C.3   174  MET174      0.1702
     80  C        -24.9200   23.3800   38.8730 C.2   174  MET174      0.2592
     81  O        -25.1710   22.3910   39.5630 O.2   174  MET174     -0.2718
     82  CB       -25.0320   22.3690   36.6050 C.3   174  MET174      0.0401
     83  CG       -25.6470   22.3590   35.2290 C.3   174  MET174      0.0596
     84  SD       -25.5200   20.7350   34.5040 S.3   174  MET174     -0.1393
     85  CE       -24.1590   20.9310   33.3870 C.3   174  MET174      0.0692
     86  N        -24.1400   24.3750   39.2910 N.am  175  TYR175     -0.1963
     87  CA       -23.5170   24.3430   40.6090 C.3   175  TYR175      0.1756
     88  C        -24.5340   24.0990   41.7040 C.2   175  TYR175      0.2461
     89  O        -25.5630   24.7620   41.7660 O.2   175  TYR175     -0.2730
     90  CB       -22.7970   25.6600   40.9100 C.3   175  TYR175      0.0574
     91  CG       -21.5330   25.8520   40.1240 C.ar  175  TYR175     -0.0198
     92  CD1      -20.4190   25.0610   40.3660 C.ar  175  TYR175     -0.0009
     93  CD2      -21.4610   26.8010   39.1100 C.ar  175  TYR175     -0.0009
     94  CE1      -19.2670   25.2070   39.6190 C.ar  175  TYR175      0.0417
     95  CE2      -20.3160   26.9530   38.3570 C.ar  175  TYR175      0.0417
     96  CZ       -19.2240   26.1550   38.6140 C.ar  175  TYR175      0.1957
     97  OH       -18.0850   26.3150   37.8620 O.3   175  TYR175     -0.2866
     98  N        -24.2620   23.1270   42.5760 N.am  176  PRO176     -0.2727
     99  CA       -25.1570   22.8030   43.6860 C.3   176  PRO176      0.1402
    100  C        -25.3370   24.0080   44.6100 C.2   176  PRO176      0.2269
    101  O        -24.3600   24.6300   45.0300 O.2   176  PRO176     -0.2865
    102  CB       -24.4330   21.6540   44.3720 C.3   176  PRO176      0.0296
    103  CG       -23.8060   20.9470   43.2190 C.3   176  PRO176      0.0237
    104  CD       -23.2420   22.0790   42.4070 C.3   176  PRO176      0.0939
@<TRIPOS>BOND
     1    22    21    1
     2    21    23    1
     3    21    18    1
     4    14    13    1
     5    14    15    1
     6    11    10   ar
     7    13     7   am
     8    15    16    2
     9    15    17   am
    10    17    18    1
    11     9    10    1
    12     9     6    1
    13    10    12   ar
    14    18    19    1
    15     5     6    1
    16     5     3   am
    17     7     6    1
    18     7     8    2
    19    20    19    2
    20     2     3    1
    21     2     1    1
    22    45    43    1
    23     3     4    2
    24    42    43    2
    25    42    41    1
    26    43    44    1
    27    65    64    1
    28    65    66    1
    29    41    40    1
    30    68    66   am
    31    68    69    1
    32    66    67    2
    33    69    70    1
    34    40    39    1
    35    63    61   ar
    36    24    25    1
    37    39    36    1
    38    26    25    1
    39    26    27    2
    40    72    70   am
    41    72    73    1
    42    70    71    2
    43    85    84    1
    44    62    61   ar
    45    61    60    1
    46    76    73    1
    47    76    77    1
    48    34    32    1
    49    33    32    1
    50    32    29    1
    51    73    74    1
    52    36    35    1
    53    36    37    1
    54    54    53    1
    55    84    83    1
    56    60    59    1
    57    37    38    2
    58    83    82    1
    59    74    75    2
    60    29    30    1
    61    29    28    1
    62    53    52    1
    63    30    31    2
    64    59    56    1
    65    82    79    1
    66    78    79    1
    67    52    51    1
    68    56    55    1
    69    56    57    1
    70    79    80    1
    71    55    48   am
    72    50    51    1
    73    50    47    1
    74    97    96    1
    75    95    96   ar
    76    95    93   ar
    77    46    47    1
    78    57    58    2
    79    96    94   ar
    80    48    47    1
    81    48    49    2
    82    80    86   am
    83    80    81    2
    84    93    91   ar
    85    86    87    1
    86    94    92   ar
    87    91    92   ar
    88    91    90    1
    89    87    90    1
    90    87    88    1
    91    88    89    2
    92    88    98   am
    93   104    98    1
    94   104   103    1
    95    98    99    1
    96   103   102    1
    97    99   102    1
    98    99   100    1
    99   100   101    2
