@<TRIPOS>MOLECULE
tmp/2p9uA00.pdb
 175 166 0 0 0
SMALL
GASTEIGER

@<TRIPOS>ATOM
      1  N         19.8170   16.3240   48.6370 N.3    11  GLY11      -0.1210
      2  CA        19.6180   15.3290   47.6060 C.3    11  GLY11       0.1956
      3  C         19.4890   13.9590   48.2420 C.2    11  GLY11       0.2613
      4  O         19.7180   13.8030   49.4460 O.2    11  GLY11      -0.2717
      5  N         19.1190   12.9700   47.4310 N.am   12  THR12      -0.1938
      6  CA        18.9530   11.5920   47.8870 C.3    12  THR12       0.2028
      7  C         20.2640   11.0600   48.4300 C.2    12  THR12       0.2643
      8  O         20.2920   10.4050   49.4720 O.2    12  THR12      -0.2714
      9  CB        18.5180   10.6720   46.7320 C.3    12  THR12       0.1808
     10  OG1       17.2530   11.1080   46.2180 O.3    12  THR12      -0.2208
     11  CG2       18.4160    9.2290   47.2100 C.3    12  THR12       0.0379
     12  N         21.3460   11.3490   47.7100 N.am   13  GLY13      -0.1939
     13  CA        22.6600   10.8950   48.1220 C.3    13  GLY13       0.2014
     14  C         23.5350   11.9740   48.7330 C.2    13  GLY13       0.2638
     15  O         24.3060   11.7030   49.6600 O.2    13  GLY13      -0.2714
     16  N         23.4200   13.2010   48.2360 N.am   14  TYR14      -0.1973
     17  CA        24.2410   14.2900   48.7570 C.3    14  TYR14       0.1639
     18  C         23.5100   15.5680   49.1120 C.2    14  TYR14       0.2290
     19  O         22.5650   15.9620   48.4400 O.2    14  TYR14      -0.2864
     20  CB        25.3510   14.6280   47.7620 C.3    14  TYR14       0.0560
     21  CG        26.3730   13.5360   47.6530 C.ar   14  TYR14      -0.0198
     22  CD1       26.2430   12.5260   46.7040 C.ar   14  TYR14      -0.0009
     23  CD2       27.4290   13.4620   48.5630 C.ar   14  TYR14      -0.0009
     24  CE1       27.1380   11.4540   46.6660 C.ar   14  TYR14       0.0417
     25  CE2       28.3270   12.4030   48.5400 C.ar   14  TYR14       0.0417
     26  CZ        28.1750   11.4000   47.5910 C.ar   14  TYR14       0.1957
     27  OH        29.0450   10.3320   47.5980 O.3    14  TYR14      -0.2866
     28  N         23.9860   19.7000   49.8120 N.3    16  LYS16      -0.1245
     29  CA        24.8690   20.8340   49.5640 C.3    16  LYS16       0.1561
     30  C         24.4570   21.9560   50.5180 C.2    16  LYS16       0.2260
     31  O         23.3190   22.4200   50.4720 O.2    16  LYS16      -0.2867
     32  CB        24.7310   21.2880   48.1070 C.3    16  LYS16       0.0271
     33  CG        25.5350   20.4640   47.1130 C.3    16  LYS16       0.0035
     34  CD        25.1180   18.9980   47.0550 C.3    16  LYS16       0.0206
     35  CE        23.8890   18.7720   46.1750 C.3    16  LYS16       0.1093
     36  NZ        23.6100   17.3080   45.9720 N.3    16  LYS16      -0.1314
     37  N         14.3640    8.9850   46.6250 N.3    67  HIS67      -0.1226
     38  CA        13.8480    9.5900   45.4090 C.3    67  HIS67       0.1752
     39  C         13.6610   11.0720   45.6860 C.2    67  HIS67       0.2596
     40  O         12.5720   11.6060   45.5240 O.2    67  HIS67      -0.2718
     41  CB        12.5050    8.9660   45.0260 C.3    67  HIS67       0.0759
     42  CG        12.4920    7.4710   45.0970 C.ar   67  HIS67       0.0818
     43  ND1       13.3580    6.6820   44.3660 N.ar   67  HIS67      -0.2268
     44  CD2       11.7450    6.6190   45.8420 C.ar   67  HIS67       0.1154
     45  CE1       13.1480    5.4110   44.6630 C.ar   67  HIS67       0.1986
     46  NE2       12.1750    5.3460   45.5550 N.ar   67  HIS67      -0.2212
     47  N         14.7300   11.7200   46.1350 N.am   68  GLY68      -0.1957
     48  CA        14.6980   13.1450   46.4330 C.3    68  GLY68       0.1869
     49  C         13.6490   13.6600   47.4050 C.2    68  GLY68       0.2309
     50  O         13.5640   14.8670   47.6390 O.2    68  GLY68      -0.2863
     51  N         13.8170   22.7410   42.8890 N.3   131  GLN131     -0.1245
     52  CA        15.1130   22.4750   42.2710 C.3   131  GLN131      0.1566
     53  C         15.2780   22.8590   40.7960 C.2   131  GLN131      0.2260
     54  O         16.2550   23.5010   40.4230 O.2   131  GLN131     -0.2867
     55  CB        15.4410   21.0030   42.4740 C.3   131  GLN131      0.0367
     56  CG        15.6780   20.6530   43.9280 C.3   131  GLN131      0.0905
     57  CD        15.5430   19.1690   44.2130 C.2   131  GLN131      0.2608
     58  OE1       15.7120   18.3340   43.3210 O.2   131  GLN131     -0.2717
     59  NE2       15.2490   18.8290   45.4680 N.am  131  GLN131     -0.0878
     60  N         17.7570   16.9280   35.0140 N.3   155  ASP155     -0.1239
     61  CA        18.4270   16.6140   36.2620 C.3   155  ASP155      0.1674
     62  C         18.7640   15.1360   36.3680 C.2   155  ASP155      0.2266
     63  O         17.8970   14.2810   36.1810 O.2   155  ASP155     -0.2867
     64  CB        17.5560   17.0050   37.4510 C.3   155  ASP155      0.1410
     65  CG        18.3780   17.3390   38.6740 C.2   155  ASP155      0.3668
     66  OD1       18.6820   18.5390   38.8620 O.co2 155  ASP155     -0.2456
     67  OD2       18.7380   16.4050   39.4310 O.co2 155  ASP155     -0.2456
     68  N         20.9990   12.6610   39.0650 N.3   157  GLY157     -0.1210
     69  CA        21.8390   12.4310   40.2250 C.3   157  GLY157      0.1956
     70  C         22.2590   10.9770   40.2530 C.2   157  GLY157      0.2612
     71  O         22.7390   10.4500   39.2480 O.2   157  GLY157     -0.2717
     72  N         22.0710   10.3100   41.3850 N.am  158  ASP158     -0.1959
     73  CA        22.4560    8.9130   41.4700 C.3   158  ASP158      0.1840
     74  C         21.2480    8.0030   41.2980 C.2   158  ASP158      0.2623
     75  O         21.3970    6.8210   41.0040 O.2   158  ASP158     -0.2715
     76  CB        23.1340    8.6270   42.8160 C.3   158  ASP158      0.1450
     77  CG        24.0170    7.3710   42.7800 C.2   158  ASP158      0.3671
     78  OD1       24.9980    7.3380   42.0030 O.co2 158  ASP158     -0.2456
     79  OD2       23.7380    6.4160   43.5360 O.co2 158  ASP158     -0.2456
     80  N         20.0520    8.5620   41.4520 N.am  159  GLY159     -0.1940
     81  CA        18.8440    7.7590   41.3410 C.3   159  GLY159      0.2014
     82  C         18.2380    7.5450   39.9680 C.2   159  GLY159      0.2638
     83  O         18.5630    6.5820   39.2730 O.2   159  GLY159     -0.2714
     84  N         17.3350    8.4440   39.5940 N.am  160  VAL160     -0.1977
     85  CA        16.6460    8.3940   38.3070 C.3   160  VAL160      0.1596
     86  C         16.6740    9.7850   37.6590 C.2   160  VAL160      0.2287
     87  O         16.3390   10.7760   38.3030 O.2   160  VAL160     -0.2864
     88  CB        15.1720    7.9270   38.5070 C.3   160  VAL160      0.0276
     89  CG1       14.3200    8.3190   37.3190 C.3   160  VAL160      0.0022
     90  CG2       15.1270    6.4160   38.6970 C.3   160  VAL160      0.0022
     91  N         15.6990   13.0770   35.4570 N.3   162  HIS162     -0.1241
     92  CA        14.4300   13.7620   35.2550 C.3   162  HIS162      0.1621
     93  C         14.4550   14.7480   34.0990 C.2   162  HIS162      0.2264
     94  O         15.4050   15.5250   33.9500 O.2   162  HIS162     -0.2867
     95  CB        14.0230   14.5340   36.5070 C.3   162  HIS162      0.0745
     96  CG        13.5980   13.6690   37.6480 C.ar  162  HIS162      0.0817
     97  ND1       14.4830   12.8920   38.3660 N.ar  162  HIS162     -0.2268
     98  CD2       12.3790   13.4550   38.1950 C.ar  162  HIS162      0.1154
     99  CE1       13.8250   12.2370   39.3070 C.ar  162  HIS162      0.1986
    100  NE2       12.5470   12.5610   39.2230 N.ar  162  HIS162     -0.2212
    101  N         23.3910    7.9960   37.5660 N.3   183  GLY183     -0.1225
    102  CA        24.6740    7.6550   38.1460 C.3   183  GLY183      0.1811
    103  C         24.9070    6.2330   38.6180 C.2   183  GLY183      0.2280
    104  O         25.9180    5.6250   38.2660 O.2   183  GLY183     -0.2866
    105  N         33.0580    3.6400   40.4740 N.3   211  LYS211     -0.1245
    106  CA        32.7160    5.0380   40.7050 C.3   211  LYS211      0.1561
    107  C         33.9220    5.9570   40.5530 C.2   211  LYS211      0.2260
    108  O         33.8120    7.0500   39.9930 O.2   211  LYS211     -0.2867
    109  CB        32.1220    5.2070   42.1030 C.3   211  LYS211      0.0271
    110  CG        31.9080    6.6580   42.4980 C.3   211  LYS211      0.0035
    111  CD        31.2530    6.7940   43.8600 C.3   211  LYS211      0.0206
    112  CE        31.1240    8.2610   44.2510 C.3   211  LYS211      0.1093
    113  NZ        30.3510    8.4290   45.5070 N.3   211  LYS211     -0.1314
    114  N         34.4930    6.1130   36.8460 N.3   214  LYS214     -0.1231
    115  CA        33.4430    6.8660   36.1680 C.3   214  LYS214      0.1693
    116  C         33.6690    8.3620   36.2900 C.2   214  LYS214      0.2591
    117  O         33.5620    9.0980   35.3090 O.2   214  LYS214     -0.2718
    118  CB        32.0660    6.5510   36.7560 C.3   214  LYS214      0.0285
    119  CG        30.9620    7.4530   36.1990 C.3   214  LYS214      0.0035
    120  CD        29.6000    7.1980   36.8290 C.3   214  LYS214      0.0206
    121  CE        29.5910    7.5540   38.2960 C.3   214  LYS214      0.1093
    122  NZ        28.2100    7.6150   38.8320 N.3   214  LYS214     -0.1314
    123  N         33.9800    8.8040   37.5050 N.am  215  GLU215     -0.1979
    124  CA        34.1900   10.2210   37.7870 C.3   215  GLU215      0.1602
    125  C         35.5060   10.8260   37.2780 C.2   215  GLU215      0.2287
    126  O         35.5490   12.0020   36.9110 O.2   215  GLU215     -0.2864
    127  CB        34.0490   10.4530   39.2960 C.3   215  GLU215      0.0415
    128  CG        32.6930   10.0220   39.8510 C.3   215  GLU215      0.1163
    129  CD        32.5360   10.3020   41.3360 C.2   215  GLU215      0.3649
    130  OE1       31.5060    9.8860   41.9110 O.co2 215  GLU215     -0.2457
    131  OE2       33.4350   10.9390   41.9260 O.co2 215  GLU215     -0.2457
    132  N         23.0140   18.1610   37.9450 N.3   309  GLY309     -0.1210
    133  CA        23.2980   16.8410   38.4830 C.3   309  GLY309      0.1956
    134  C         24.7080   16.3600   38.2290 C.2   309  GLY309      0.2612
    135  O         25.3340   16.7130   37.2250 O.2   309  GLY309     -0.2717
    136  N         25.2190   15.5480   39.1420 N.am  310  GLY310     -0.1942
    137  CA        26.5600   15.0340   38.9730 C.3   310  GLY310      0.2014
    138  C         26.6270   14.1340   37.7570 C.2   310  GLY310      0.2639
    139  O         27.6950   13.9040   37.1860 O.2   310  GLY310     -0.2714
    140  N         25.4800   13.6230   37.3400 N.am  311  SER311     -0.1949
    141  CA        25.4730   12.7360   36.2020 C.3   311  SER311      0.1924
    142  C         25.4570   13.4610   34.8780 C.2   311  SER311      0.2314
    143  O         25.6060   12.8350   33.8320 O.2   311  SER311     -0.2863
    144  CB        24.3070   11.7640   36.3020 C.3   311  SER311      0.2116
    145  OG        24.5430   10.8440   37.3550 O.3   311  SER311     -0.2180
    146  N         27.5890   15.7300   34.4170 N.3   313  MET313     -0.1230
    147  CA        28.9760   16.2100   34.4260 C.3   313  MET313      0.1702
    148  C         29.8150   15.6820   33.2620 C.2   313  MET313      0.2592
    149  O         30.7520   16.3410   32.8210 O.2   313  MET313     -0.2718
    150  CB        29.6790   15.8020   35.7300 C.3   313  MET313      0.0401
    151  CG        29.0460   16.3100   37.0110 C.3   313  MET313      0.0596
    152  SD        29.1320   18.0750   37.1410 S.3   313  MET313     -0.1393
    153  CE        30.7500   18.2590   37.8540 C.3   313  MET313      0.0692
    154  N         29.4920   14.4890   32.7770 N.am  314  PHE314     -0.1976
    155  CA        30.2570   13.8890   31.6950 C.3   314  PHE314      0.1639
    156  C         30.5420   14.8780   30.5840 C.2   314  PHE314      0.2290
    157  O         29.6520   15.6050   30.1490 O.2   314  PHE314     -0.2864
    158  CB        29.5220   12.6710   31.1440 C.3   314  PHE314      0.0560
    159  CG        29.3310   11.5840   32.1520 C.ar  314  PHE314     -0.0200
    160  CD1       30.4260   10.9000   32.6600 C.ar  314  PHE314     -0.0042
    161  CD2       28.0550   11.2700   32.6270 C.ar  314  PHE314     -0.0042
    162  CE1       30.2630    9.9210   33.6270 C.ar  314  PHE314     -0.0003
    163  CE2       27.8760   10.2880   33.5970 C.ar  314  PHE314     -0.0003
    164  CZ        28.9820    9.6110   34.1000 C.ar  314  PHE314     -0.0000
    165  N         27.6170   20.3650   39.0720 N.3   356  ARG356     -0.1245
    166  CA        27.4140   19.3400   40.0940 C.3   356  ARG356      0.1563
    167  C         26.4830   19.8930   41.1650 C.2   356  ARG356      0.2260
    168  O         25.5830   19.1960   41.6480 O.2   356  ARG356     -0.2867
    169  CB        28.7290   18.9090   40.7330 C.3   356  ARG356      0.0307
    170  CG        28.5500   17.7750   41.7430 C.3   356  ARG356      0.0489
    171  CD        29.8920   17.2450   42.1930 C.3   356  ARG356      0.2205
    172  NE        29.7830   16.1400   43.1400 N.pl3 356  ARG356     -0.0865
    173  CZ        30.8330   15.4890   43.6410 C.cat 356  ARG356      0.5346
    174  NH1       32.0640   15.8410   43.2800 N.pl3 356  ARG356      0.1354
    175  NH2       30.6590   14.4890   44.5010 N.pl3 356  ARG356      0.1354
@<TRIPOS>BOND
     1   157   156    2
     2   156   155    1
     3   158   155    1
     4   158   159    1
     5   155   154    1
     6   159   161   ar
     7   159   160   ar
     8   161   163   ar
     9   160   162   ar
    10   154   148   am
    11   149   148    2
    12   148   147    1
    13   163   164   ar
    14   162   164   ar
    15   143   142    2
    16    94    93    2
    17    93    92    1
    18   146   147    1
    19   147   150    1
    20   142   141    1
    21    60    61    1
    22    92    91    1
    23    92    95    1
    24   117   116    2
    25   150   151    1
    26   115   116    1
    27   115   118    1
    28   115   114    1
    29    63    62    2
    30   119   118    1
    31   119   120    1
    32   141   144    1
    33   141   140    1
    34    61    62    1
    35    61    64    1
    36   116   123   am
    37   144   145    1
    38    95    96    1
    39   120   121    1
    40   126   125    2
    41   151   152    1
    42   152   153    1
    43   139   138    2
    44   135   134    2
    45   125   124    1
    46    89    88    1
    47   140   138   am
    48    64    65    1
    49   123   124    1
    50   101   102    1
    51    96    98   ar
    52    96    97   ar
    53    86    87    2
    54    86    85    1
    55   138   137    1
    56   124   127    1
    57   132   133    1
    58   102   103    1
    59    98   100   ar
    60   134   133    1
    61   134   136   am
    62   104   103    2
    63   121   122    1
    64    85    88    1
    65    85    84    1
    66    97    99   ar
    67    88    90    1
    68    65    66   ar
    69    65    67   ar
    70   137   136    1
    71    68    69    1
    72   165   166    1
    73   100    99   ar
    74    71    70    2
    75    83    82    2
    76   127   128    1
    77    84    82   am
    78   128   129    1
    79    82    81    1
    80   108   107    2
    81   166   169    1
    82   166   167    1
    83    69    70    1
    84    70    72   am
    85    54    53    2
    86   105   106    1
    87   107   106    1
    88   106   109    1
    89   169   170    1
    90    53    52    1
    91    75    74    2
    92   167   168    2
    93    74    80   am
    94    74    73    1
    95   129   130   ar
    96   129   131   ar
    97    81    80    1
    98    72    73    1
    99    73    76    1
   100   170   171    1
   101    78    77   ar
   102   109   110    1
   103   171   172    1
   104    52    55    1
   105    52    51    1
   106    55    56    1
   107   110   111    1
   108    77    76    1
   109    77    79   ar
   110   172   173    2
   111   174   173    1
   112    58    57    2
   113   173   175    1
   114   111   112    1
   115    56    57    1
   116    57    59   am
   117   112   113    1
   118    43    45   ar
   119    43    42   ar
   120    45    46   ar
   121    41    42    1
   122    41    38    1
   123    42    44   ar
   124    38    39    1
   125    38    37    1
   126    40    39    2
   127    46    44   ar
   128    39    47   am
   129    36    35    1
   130    47    48    1
   131    35    34    1
   132    10     9    1
   133    48    49    1
   134    24    22   ar
   135    24    26   ar
   136    22    21   ar
   137     9    11    1
   138     9     6    1
   139    34    33    1
   140    33    32    1
   141    49    50    2
   142     5     6    1
   143     5     3   am
   144    26    27    1
   145    26    25   ar
   146     2     3    1
   147     2     1    1
   148    21    20    1
   149    21    23   ar
   150    12    13    1
   151    12     7   am
   152    20    17    1
   153     6     7    1
   154    32    29    1
   155    13    14    1
   156    16    14   am
   157    16    17    1
   158     3     4    2
   159     7     8    2
   160    19    18    2
   161    25    23   ar
   162    14    15    2
   163    17    18    1
   164    29    28    1
   165    29    30    1
   166    31    30    2
