@<TRIPOS>MOLECULE
tmp/2paaA00.pdb
 199 191 0 0 0
SMALL
GASTEIGER

@<TRIPOS>ATOM
      1  N         -6.4450  -12.1540    3.9620 N.3   209  GLY209     -0.1210
      2  CA        -7.4450  -12.5740    3.0030 C.3   209  GLY209      0.1956
      3  C         -6.8970  -12.5280    1.5890 C.2   209  GLY209      0.2612
      4  O         -5.7930  -12.0610    1.3760 O.2   209  GLY209     -0.2717
      5  N         -7.6630  -13.0100    0.6220 N.am  210  GLY210     -0.1942
      6  CA        -7.1910  -13.0120   -0.7490 C.3   210  GLY210      0.2014
      7  C         -7.6180  -14.2260   -1.5500 C.2   210  GLY210      0.2639
      8  O         -8.2250  -15.1760   -1.0270 O.2   210  GLY210     -0.2714
      9  N         -7.2840  -14.1960   -2.8360 N.am  211  ALA211     -0.1963
     10  CA        -7.6320  -15.2650   -3.7600 C.3   211  ALA211      0.1728
     11  C         -6.7050  -16.4760   -3.7440 C.2   211  ALA211      0.2616
     12  O         -7.1370  -17.5730   -3.3770 O.2   211  ALA211     -0.2715
     13  CB        -7.7240  -14.7110   -5.1720 C.3   211  ALA211      0.0334
     14  N         -5.4470  -16.2940   -4.1460 N.am  212  LYS212     -0.1977
     15  CA        -4.4940  -17.4060   -4.1960 C.3   212  LYS212      0.1596
     16  C         -3.5550  -17.5040   -3.0070 C.2   212  LYS212      0.2287
     17  O         -3.2090  -16.5010   -2.3870 O.2   212  LYS212     -0.2864
     18  CB        -3.6450  -17.3420   -5.4760 C.3   212  LYS212      0.0298
     19  CG        -4.4230  -17.4290   -6.7770 C.3   212  LYS212      0.0038
     20  CD        -4.9330  -16.0580   -7.2210 C.3   212  LYS212      0.0206
     21  CE        -3.7970  -15.1320   -7.6880 C.3   212  LYS212      0.1093
     22  NZ        -4.2970  -13.8430   -8.2900 N.3   212  LYS212     -0.1314
     23  N          0.9780  -16.8200   -3.6980 N.3   215  ASP215     -0.1225
     24  CA         1.6570  -15.5360   -3.5640 C.3   215  ASP215      0.1805
     25  C          1.4970  -14.8710   -2.1910 C.2   215  ASP215      0.2597
     26  O          1.6560  -13.6580   -2.0690 O.2   215  ASP215     -0.2718
     27  CB         1.2040  -14.5730   -4.6660 C.3   215  ASP215      0.1424
     28  CG        -0.2810  -14.2450   -4.5890 C.2   215  ASP215      0.3668
     29  OD1       -0.7310  -13.7520   -3.5300 O.co2 215  ASP215     -0.2456
     30  OD2       -0.9990  -14.4720   -5.5910 O.co2 215  ASP215     -0.2456
     31  N          1.1890  -15.6560   -1.1600 N.am  216  LYS216     -0.1979
     32  CA         1.0330  -15.1110    0.1950 C.3   216  LYS216      0.1596
     33  C          1.8960  -15.8930    1.1760 C.2   216  LYS216      0.2287
     34  O          1.8560  -15.6500    2.3800 O.2   216  LYS216     -0.2864
     35  CB        -0.4260  -15.1910    0.6760 C.3   216  LYS216      0.0298
     36  CG        -1.4490  -14.4230   -0.1310 C.3   216  LYS216      0.0038
     37  CD        -1.1440  -12.9430   -0.1550 C.3   216  LYS216      0.0206
     38  CE        -2.3950  -12.1530   -0.4910 C.3   216  LYS216      0.1093
     39  NZ        -3.2300  -12.8670   -1.5050 N.3   216  LYS216     -0.1314
     40  N        -10.9930  -15.4400    2.2210 N.3   234  GLY234     -0.1210
     41  CA       -10.8510  -15.2280    0.7960 C.3   234  GLY234      0.1956
     42  C        -10.6380  -16.5610    0.0990 C.2   234  GLY234      0.2612
     43  O        -10.6160  -17.6090    0.7460 O.2   234  GLY234     -0.2717
     44  N        -10.4830  -16.5200   -1.2200 N.am  235  GLY235     -0.1956
     45  CA       -10.2790  -17.7360   -1.9910 C.3   235  GLY235      0.1869
     46  C         -9.2200  -18.6880   -1.4520 C.2   235  GLY235      0.2309
     47  O         -9.3190  -19.8980   -1.6330 O.2   235  GLY235     -0.2863
     48  N        -10.1850  -22.0700    0.6120 N.3   238  TYR238     -0.1241
     49  CA       -10.5560  -23.3290    0.0150 C.3   238  TYR238      0.1605
     50  C         -9.3440  -24.2320   -0.2430 C.2   238  TYR238      0.2264
     51  O         -9.4530  -25.4490   -0.1380 O.2   238  TYR238     -0.2867
     52  CB       -11.3910  -23.0490   -1.2340 C.3   238  TYR238      0.0534
     53  CG       -12.5450  -22.1360   -0.8940 C.ar  238  TYR238     -0.0201
     54  CD1      -12.4660  -20.7550   -1.1050 C.ar  238  TYR238     -0.0009
     55  CD2      -13.6790  -22.6400   -0.2650 C.ar  238  TYR238     -0.0009
     56  CE1      -13.4830  -19.9070   -0.6950 C.ar  238  TYR238      0.0417
     57  CE2      -14.7050  -21.7970    0.1570 C.ar  238  TYR238      0.0417
     58  CZ       -14.6020  -20.4380   -0.0580 C.ar  238  TYR238      0.1957
     59  OH       -15.6120  -19.6140    0.3910 O.3   238  TYR238     -0.2866
     60  N        -12.1930  -21.5650   -6.1760 N.3   253  LEU253     -0.1245
     61  CA       -10.8160  -21.4570   -6.6240 C.3   253  LEU253      0.1561
     62  C         -9.9620  -22.4600   -5.8340 C.2   253  LEU253      0.2260
     63  O        -10.3240  -22.8450   -4.7270 O.2   253  LEU253     -0.2867
     64  CB       -10.2890  -20.0430   -6.3700 C.3   253  LEU253      0.0270
     65  CG       -11.1350  -18.8310   -6.7580 C.3   253  LEU253      0.0019
     66  CD1      -10.3980  -17.5560   -6.3550 C.3   253  LEU253      0.0001
     67  CD2      -11.4190  -18.8520   -8.2620 C.3   253  LEU253      0.0001
     68  N        -19.2090  -17.2840  -10.7460 N.3   288  PHE288     -0.1241
     69  CA       -18.4660  -16.1080  -10.2960 C.3   288  PHE288      0.1605
     70  C        -19.0430  -14.8610  -10.9700 C.2   288  PHE288      0.2264
     71  O        -18.4620  -14.3270  -11.9170 O.2   288  PHE288     -0.2867
     72  CB       -16.9700  -16.2530  -10.6370 C.3   288  PHE288      0.0534
     73  CG       -16.0930  -15.2120   -9.9940 C.ar  288  PHE288     -0.0203
     74  CD1      -15.8610  -15.2160   -8.6180 C.ar  288  PHE288     -0.0042
     75  CD2      -15.5060  -14.2110  -10.7610 C.ar  288  PHE288     -0.0042
     76  CE1      -15.0640  -14.2450   -8.0290 C.ar  288  PHE288     -0.0003
     77  CE2      -14.7070  -13.2330  -10.1730 C.ar  288  PHE288     -0.0003
     78  CZ       -14.4870  -13.2520   -8.8100 C.ar  288  PHE288     -0.0000
     79  N        -19.6150  -22.1610   -6.0850 N.3   308  MET308     -0.1230
     80  CA       -18.3050  -21.8380   -5.5400 C.3   308  MET308      0.1702
     81  C        -18.4160  -20.8870   -4.3510 C.2   308  MET308      0.2593
     82  O        -19.3140  -20.0460   -4.3020 O.2   308  MET308     -0.2718
     83  CB       -17.4320  -21.2260   -6.6410 C.3   308  MET308      0.0401
     84  CG       -17.8620  -19.8480   -7.0940 C.3   308  MET308      0.0596
     85  SD       -17.0830  -19.3270   -8.6380 S.3   308  MET308     -0.1393
     86  CE       -15.3280  -19.3440   -8.1970 C.3   308  MET308      0.0692
     87  N        -17.5080  -21.0390   -3.3890 N.am  309  GLY309     -0.1942
     88  CA       -17.5180  -20.1960   -2.2020 C.3   309  GLY309      0.2014
     89  C        -17.0270  -18.7990   -2.4990 C.2   309  GLY309      0.2639
     90  O        -15.9400  -18.6250   -3.0340 O.2   309  GLY309     -0.2714
     91  N        -17.8100  -17.7960   -2.1320 N.am  310  LEU310     -0.1963
     92  CA       -17.4300  -16.4260   -2.4130 C.3   310  LEU310      0.1728
     93  C        -17.3190  -15.5000   -1.2000 C.2   310  LEU310      0.2616
     94  O        -16.8540  -14.3610   -1.3180 O.2   310  LEU310     -0.2715
     95  CB       -18.4170  -15.8490   -3.4240 C.3   310  LEU310      0.0311
     96  CG       -18.4390  -16.5520   -4.7830 C.3   310  LEU310      0.0022
     97  CD1      -19.4590  -15.8930   -5.7000 C.3   310  LEU310      0.0001
     98  CD2      -17.0570  -16.4650   -5.4010 C.3   310  LEU310      0.0001
     99  N        -17.7410  -15.9910   -0.0410 N.am  311  ASP311     -0.1971
    100  CA       -17.6860  -15.2200    1.1950 C.3   311  ASP311      0.1709
    101  C        -17.9790  -16.1760    2.3530 C.2   311  ASP311      0.2293
    102  O        -18.6570  -17.2060    2.1710 O.2   311  ASP311     -0.2864
    103  CB       -18.7280  -14.0950    1.1470 C.3   311  ASP311      0.1436
    104  CG       -18.6640  -13.1700    2.3540 C.2   311  ASP311      0.3671
    105  OD1      -17.5540  -12.8090    2.7780 O.co2 311  ASP311     -0.2456
    106  OD2      -19.7250  -12.7840    2.8700 O.co2 311  ASP311     -0.2456
    107  N         -4.9870   -7.5540    6.0150 N.3   333  ASN333     -0.1225
    108  CA        -4.5300   -7.4900    4.6460 C.3   333  ASN333      0.1785
    109  C         -5.3660   -8.4250    3.7970 C.2   333  ASN333      0.2598
    110  O         -5.1810   -9.6460    3.8290 O.2   333  ASN333     -0.2718
    111  CB        -3.0530   -7.8760    4.5790 C.3   333  ASN333      0.1169
    112  CG        -2.3680   -7.3410    3.3450 C.2   333  ASN333      0.2627
    113  OD1       -2.6510   -7.7720    2.2280 O.2   333  ASN333     -0.2716
    114  ND2       -1.4670   -6.3890    3.5380 N.am  333  ASN333     -0.0877
    115  N         -6.3110   -7.8490    3.0600 N.am  334  GLY334     -0.1943
    116  CA        -7.1540   -8.6390    2.1870 C.3   334  GLY334      0.1998
    117  C         -8.5490   -9.0200    2.6470 C.2   334  GLY334      0.2481
    118  O         -8.7340   -9.7190    3.6540 O.2   334  GLY334     -0.2729
    119  N         -9.5750   -8.5780    1.9090 N.am  335  PRO335     -0.2715
    120  CA       -10.9290   -8.9280    2.3140 C.3   335  PRO335      0.1536
    121  C        -11.0550  -10.4410    2.3440 C.2   335  PRO335      0.2598
    122  O        -10.2390  -11.1480    1.7430 O.2   335  PRO335     -0.2715
    123  CB       -11.7670   -8.2800    1.2340 C.3   335  PRO335      0.0310
    124  CG       -10.9840   -7.0280    0.9390 C.3   335  PRO335      0.0237
    125  CD        -9.5920   -7.5690    0.8380 C.3   335  PRO335      0.0939
    126  N        -12.0740  -10.9270    3.0490 N.am  336  ILE336     -0.1964
    127  CA       -12.3080  -12.3580    3.1710 C.3   336  ILE336      0.1727
    128  C        -13.4440  -12.8820    2.2760 C.2   336  ILE336      0.2617
    129  O        -13.9130  -14.0050    2.4340 O.2   336  ILE336     -0.2715
    130  CB       -12.5850  -12.7290    4.6450 C.3   336  ILE336      0.0290
    131  CG1      -13.8270  -11.9870    5.1540 C.3   336  ILE336      0.0022
    132  CG2      -11.4120  -12.3190    5.4930 C.3   336  ILE336      0.0023
    133  CD1      -14.2240  -12.3600    6.5840 C.3   336  ILE336      0.0001
    134  N        -13.8700  -12.0600    1.3280 N.am  337  GLY337     -0.1940
    135  CA       -14.9240  -12.4660    0.4100 C.3   337  GLY337      0.2014
    136  C        -14.8410  -11.5260   -0.7760 C.2   337  GLY337      0.2639
    137  O        -14.0280  -10.6080   -0.7540 O.2   337  GLY337     -0.2714
    138  N        -15.6510  -11.7490   -1.8040 N.am  338  VAL338     -0.1963
    139  CA       -15.6550  -10.8880   -2.9900 C.3   338  VAL338      0.1727
    140  C        -16.3790   -9.5890   -2.6410 C.2   338  VAL338      0.2616
    141  O        -17.5110   -9.3770   -3.0570 O.2   338  VAL338     -0.2715
    142  CB       -16.3960  -11.5870   -4.1420 C.3   338  VAL338      0.0290
    143  CG1      -16.2500  -10.7970   -5.4360 C.3   338  VAL338      0.0023
    144  CG2      -15.8740  -13.0150   -4.2830 C.3   338  VAL338      0.0023
    145  N        -15.7150   -8.7270   -1.8780 N.am  339  PHE339     -0.1960
    146  CA       -16.2820   -7.4590   -1.4200 C.3   339  PHE339      0.1771
    147  C        -16.8310   -6.5510   -2.5190 C.2   339  PHE339      0.2619
    148  O        -17.7130   -5.7300   -2.2700 O.2   339  PHE339     -0.2715
    149  CB       -15.2290   -6.6990   -0.6180 C.3   339  PHE339      0.0574
    150  CG       -14.1360   -6.1290   -1.4540 C.ar  339  PHE339     -0.0200
    151  CD1      -14.1740   -4.7950   -1.8510 C.ar  339  PHE339     -0.0042
    152  CD2      -13.0730   -6.9240   -1.8700 C.ar  339  PHE339     -0.0042
    153  CE1      -13.1720   -4.2590   -2.6510 C.ar  339  PHE339     -0.0003
    154  CE2      -12.0600   -6.4020   -2.6690 C.ar  339  PHE339     -0.0003
    155  CZ       -12.1110   -5.0660   -3.0610 C.ar  339  PHE339     -0.0000
    156  N        -16.3100   -6.6960   -3.7310 N.am  340  GLU340     -0.1977
    157  CA       -16.7490   -5.8630   -4.8360 C.3   340  GLU340      0.1602
    158  C        -18.2170   -6.0640   -5.1110 C.2   340  GLU340      0.2287
    159  O        -18.8380   -5.2500   -5.7950 O.2   340  GLU340     -0.2864
    160  CB       -15.9630   -6.1830   -6.1120 C.3   340  GLU340      0.0415
    161  CG       -14.4510   -6.0620   -5.9680 C.3   340  GLU340      0.1163
    162  CD       -13.7740   -7.3810   -5.6010 C.2   340  GLU340      0.3649
    163  OE1      -14.3360   -8.1650   -4.7970 O.co2 340  GLU340     -0.2457
    164  OE2      -12.6600   -7.6270   -6.1110 O.co2 340  GLU340     -0.2457
    165  N         -4.0050   -2.9800    5.1380 N.3   368  GLY368     -0.1225
    166  CA        -3.1770   -3.0470    3.9460 C.3   368  GLY368      0.1811
    167  C         -3.6350   -2.0530    2.9020 C.2   368  GLY368      0.2280
    168  O         -4.8280   -1.7780    2.7870 O.2   368  GLY368     -0.2866
    169  N         -3.9190   -2.2720   -0.3270 N.3   370  GLY370     -0.1210
    170  CA        -4.6400   -2.7580   -1.4920 C.3   370  GLY370      0.1956
    171  C         -6.1590   -2.7560   -1.4360 C.2   370  GLY370      0.2612
    172  O         -6.7890   -1.7250   -1.1900 O.2   370  GLY370     -0.2717
    173  N         -6.7460   -3.9250   -1.6990 N.am  371  ASP371     -0.1959
    174  CA        -8.1970   -4.1040   -1.6930 C.3   371  ASP371      0.1840
    175  C         -8.8050   -3.7380   -0.3420 C.2   371  ASP371      0.2622
    176  O         -9.9710   -3.3620   -0.2580 O.2   371  ASP371     -0.2715
    177  CB        -8.5580   -5.5610   -2.0300 C.3   371  ASP371      0.1450
    178  CG        -8.7200   -5.8060   -3.5290 C.2   371  ASP371      0.3671
    179  OD1       -8.9630   -6.9760   -3.9260 O.co2 371  ASP371     -0.2456
    180  OD2       -8.6160   -4.8310   -4.3090 O.co2 371  ASP371     -0.2456
    181  N         -8.0140   -3.8460    0.7170 N.am  372  THR372     -0.1951
    182  CA        -8.5070   -3.5370    2.0480 C.3   372  THR372      0.1897
    183  C         -8.6060   -2.0340    2.2760 C.2   372  THR372      0.2313
    184  O         -9.5540   -1.5580    2.9030 O.2   372  THR372     -0.2863
    185  CB        -7.5970   -4.1570    3.1210 C.3   372  THR372      0.1794
    186  OG1       -6.9880   -5.3380    2.5940 O.3   372  THR372     -0.2208
    187  CG2       -8.4100   -4.5430    4.3510 C.3   372  THR372      0.0378
    188  N         -0.6570   -0.4090   -1.5560 N.3   392  GLY392     -0.1225
    189  CA        -0.7960   -1.8530   -1.5090 C.3   392  GLY392      0.1811
    190  C          0.5190   -2.5810   -1.7040 C.2   392  GLY392      0.2280
    191  O          1.0120   -3.2720   -0.8050 O.2   392  GLY392     -0.2866
    192  N          2.6360   -4.6810    1.3930 N.3   396  LEU396     -0.1245
    193  CA         2.7240   -6.1300    1.2750 C.3   396  LEU396      0.1561
    194  C          4.1570   -6.5920    1.4800 C.2   396  LEU396      0.2260
    195  O          4.4160   -7.5760    2.1760 O.2   396  LEU396     -0.2867
    196  CB         2.2350   -6.5700   -0.0990 C.3   396  LEU396      0.0270
    197  CG         2.3900   -8.0460   -0.4420 C.3   396  LEU396      0.0019
    198  CD1        1.5590   -8.9170    0.4950 C.3   396  LEU396      0.0001
    199  CD2        1.9650   -8.2350   -1.8960 C.3   396  LEU396      0.0001
@<TRIPOS>BOND
     1    71    70    2
     2    70    69    1
     3    75    77   ar
     4    75    73   ar
     5    68    69    1
     6    72    69    1
     7    72    73    1
     8    77    78   ar
     9    73    74   ar
    10    78    76   ar
    11    85    86    1
    12    85    84    1
    13    74    76   ar
    14    22    21    1
    15    67    65    1
    16    21    20    1
    17    20    19    1
    18    84    83    1
    19    19    18    1
    20    65    64    1
    21    65    66    1
    22    83    80    1
    23    61    64    1
    24    61    60    1
    25    61    62    1
    26   160   161    1
    27   160   157    1
    28   164   162   ar
    29    79    80    1
    30   161   162    1
    31    62    63    2
    32   159   158    2
    33    97    96    1
    34   162   163   ar
    35    30    28   ar
    36    80    81    1
    37    18    15    1
    38   143   142    1
    39    98    96    1
    40    13    10    1
    41   158   157    1
    42   157   156    1
    43    96    95    1
    44    27    28    1
    45    27    24    1
    46    28    29   ar
    47    81    82    2
    48    81    87   am
    49   180   178   ar
    50   144   142    1
    51    15    14    1
    52    15    16    1
    53    14    11   am
    54   142   139    1
    55   179   178   ar
    56    10    11    1
    57    10     9    1
    58    11    12    2
    59   156   147   am
    60    23    24    1
    61    24    25    1
    62   178   177    1
    63    95    92    1
    64    87    88    1
    65   155   154   ar
    66   155   153   ar
    67   141   140    2
    68    90    89    2
    69    16    17    2
    70   139   140    1
    71   139   138    1
    72     9     7   am
    73   154   152   ar
    74   153   151   ar
    75   140   145   am
    76   147   148    2
    77   147   146    1
    78    89    88    1
    79    89    91   am
    80    92    91    1
    81    92    93    1
    82    25    26    2
    83    25    31   am
    84   177   174    1
    85    45    46    1
    86    45    44    1
    87   199   197    1
    88   145   146    1
    89   152   150   ar
    90   151   150   ar
    91   138   136   am
    92   190   189    1
    93   190   191    2
    94   173   174    1
    95   173   171   am
    96   174   175    1
    97    47    46    2
    98   188   189    1
    99     7     8    2
   100     7     6    1
   101    39    38    1
   102   170   171    1
   103   170   169    1
   104   150   149    1
   105   171   172    2
   106   146   149    1
   107    94    93    2
   108    52    53    1
   109    52    49    1
   110    44    42   am
   111    93    99   am
   112    31    32    1
   113    54    53   ar
   114    54    56   ar
   115    53    55   ar
   116   136   137    2
   117   136   135    1
   118     6     5    1
   119    56    58   ar
   120    38    37    1
   121   197   196    1
   122   197   198    1
   123   175   176    2
   124   175   181   am
   125    55    57   ar
   126    50    51    2
   127    50    49    1
   128    37    36    1
   129    36    35    1
   130   196   193    1
   131    58    57   ar
   132    58    59    1
   133    99   100    1
   134    49    48    1
   135    42    43    2
   136    42    41    1
   137    32    35    1
   138    32    33    1
   139   135   134    1
   140     5     3   am
   141   181   182    1
   142    41    40    1
   143   125   124    1
   144   125   119    1
   145   124   123    1
   146   103   100    1
   147   103   104    1
   148    33    34    2
   149   100   101    1
   150   123   120    1
   151   193   192    1
   152   193   194    1
   153   134   128   am
   154     4     3    2
   155   194   195    2
   156     3     2    1
   157   122   121    2
   158   119   120    1
   159   119   117   am
   160   182   183    1
   161   182   185    1
   162   102   101    2
   163   116   117    1
   164   116   115    1
   165   113   112    2
   166   128   129    2
   167   128   127    1
   168   183   184    2
   169   120   121    1
   170   121   126   am
   171   104   105   ar
   172   104   106   ar
   173   186   185    1
   174   117   118    2
   175   168   167    2
   176   167   166    1
   177     2     1    1
   178   126   127    1
   179   115   109   am
   180   185   187    1
   181   127   130    1
   182   112   114   am
   183   112   111    1
   184   109   110    2
   185   109   108    1
   186   166   165    1
   187   111   108    1
   188   130   131    1
   189   130   132    1
   190   108   107    1
   191   131   133    1
