@<TRIPOS>MOLECULE
tmp/2padA00.pdb
 76 73 0 0 0
SMALL
GASTEIGER

@<TRIPOS>ATOM
      1  N         22.6240   23.6460   15.1590 N.3    19  GLN19      -0.1245
      2  CA        21.3440   22.9590   14.9460 C.3    19  GLN19       0.1566
      3  C         21.3230   22.4130   13.5180 C.2    19  GLN19       0.2260
      4  O         20.6110   21.4310   13.2140 O.2    19  GLN19      -0.2867
      5  CB        20.2370   23.9430   15.2030 C.3    19  GLN19       0.0367
      6  CG        20.3550   25.1730   14.4120 C.3    19  GLN19       0.0905
      7  CD        19.4580   26.3320   14.8710 C.2    19  GLN19       0.2608
      8  OE1       20.0030   27.3070   15.4940 O.2    19  GLN19      -0.2717
      9  NE2       18.2320   26.3020   14.5580 N.am   19  GLN19      -0.0878
     10  N         15.4490   23.6140   12.1110 N.3    23  GLY23      -0.1210
     11  CA        14.8380   24.7630   12.7920 C.3    23  GLY23       0.1956
     12  C         14.4880   24.2150   14.1760 C.2    23  GLY23       0.2613
     13  O         13.3160   23.8850   14.4620 O.2    23  GLY23      -0.2717
     14  N         15.5190   24.1370   15.0030 N.am   24  SER24      -0.1938
     15  CA        15.4060   23.6500   16.3840 C.3    24  SER24       0.2055
     16  C         16.1170   24.3470   17.5450 C.2    24  SER24       0.2643
     17  O         16.3880   23.7310   18.5990 O.2    24  SER24      -0.2714
     18  CB        15.9070   22.2260   16.4840 C.3    24  SER24       0.2130
     19  OG        17.2460   22.0970   16.0150 O.3    24  SER24      -0.2179
     20  N         16.4900   25.6830   17.2770 N.am   25  CYS25      -0.1967
     21  CA        17.1640   26.5400   18.3070 C.3    25  CYS25       0.1712
     22  C         16.4240   26.4750   19.6150 C.2    25  CYS25       0.2296
     23  O         17.0860   26.5830   20.7070 O.2    25  CYS25      -0.2864
     24  CB        17.2830   28.0280   17.7300 C.3    25  CYS25       0.0983
     25  SG        15.6830   28.3930   17.0390 S.3    25  CYS25      -0.0798
     26  N         16.3750   37.2560   14.3440 N.3   136  ALA136     -0.1231
     27  CA        17.5630   36.6950   13.6870 C.3   136  ALA136      0.1694
     28  C         17.3890   36.6870   12.1680 C.2   136  ALA136      0.2591
     29  O         18.3760   36.7640   11.4050 O.2   136  ALA136     -0.2718
     30  CB        17.8050   35.2890   14.2230 C.3   136  ALA136      0.0304
     31  N         16.1290   36.5970   11.7690 N.am  137  ALA137     -0.1980
     32  CA        15.7340   36.5840   10.3550 C.3   137  ALA137      0.1597
     33  C         16.5480   37.7680    9.8300 C.2   137  ALA137      0.2287
     34  O         16.5600   38.0530    8.6130 O.2   137  ALA137     -0.2864
     35  CB        14.2430   36.7930   10.1210 C.3   137  ALA137      0.0319
     36  N         22.8300   38.0090   10.9360 N.3   142  GLN142     -0.1245
     37  CA        23.1810   36.8150   10.1550 C.3   142  GLN142      0.1566
     38  C         24.6400   36.8560    9.6970 C.2   142  GLN142      0.2260
     39  O         25.3000   35.8040    9.5550 O.2   142  GLN142     -0.2867
     40  CB        22.2500   36.7360    8.9780 C.3   142  GLN142      0.0367
     41  CG        21.3090   35.6130    9.0540 C.3   142  GLN142      0.0905
     42  CD        20.3610   35.4730    7.8530 C.2   142  GLN142      0.2608
     43  OE1       20.6600   36.0880    6.7730 O.2   142  GLN142     -0.2717
     44  NE2       19.3600   34.7060    7.9660 N.am  142  GLN142     -0.0878
     45  N         11.6540   35.6940   16.4360 N.3   158  ASP158     -0.1225
     46  CA        11.5490   34.3800   15.7820 C.3   158  ASP158      0.1805
     47  C         12.6760   33.3430   15.7970 C.2   158  ASP158      0.2597
     48  O         12.6630   32.3690   15.0140 O.2   158  ASP158     -0.2718
     49  CB        11.2640   34.5690   14.2730 C.3   158  ASP158      0.1424
     50  CG        12.4700   35.1190   13.5510 C.2   158  ASP158      0.3668
     51  OD1       13.4940   35.5030   14.0950 O.co2 158  ASP158     -0.2456
     52  OD2       12.4020   35.1090   12.3500 O.co2 158  ASP158     -0.2456
     53  N         13.6220   33.5810   16.6960 N.am  159  HIS159     -0.1975
     54  CA        14.7900   32.7070   16.8900 C.3   159  HIS159      0.1656
     55  C         15.1110   32.7700   18.3860 C.2   159  HIS159      0.2291
     56  O         15.0920   33.8570   19.0030 O.2   159  HIS159     -0.2864
     57  CB        15.9370   33.2080   16.0110 C.3   159  HIS159      0.0771
     58  CG        17.1830   32.3570   16.0500 C.ar  159  HIS159      0.0820
     59  ND1       17.1320   30.9680   16.0350 N.ar  159  HIS159     -0.2267
     60  CD2       18.4990   32.6880   16.1320 C.ar  159  HIS159      0.1154
     61  CE1       18.3640   30.5020   16.1080 C.ar  159  HIS159      0.1986
     62  NE2       19.1990   31.5200   16.1420 N.ar  159  HIS159     -0.2212
     63  N         24.1700   28.2850   16.1780 N.3   177  TRP177     -0.1241
     64  CA        24.8200   28.1530   14.8650 C.3   177  TRP177      0.1605
     65  C         26.2280   27.6910   15.2530 C.2   177  TRP177      0.2264
     66  O         26.5630   27.5920   16.4530 O.2   177  TRP177     -0.2867
     67  CB        24.7450   29.4990   14.1380 C.3   177  TRP177      0.0550
     68  CG        23.3050   30.0090   13.7500 C.ar  177  TRP177      0.0003
     69  CD1       22.1160   29.4170   13.9420 C.ar  177  TRP177      0.0946
     70  CD2       23.0080   31.2480   13.1640 C.ar  177  TRP177      0.0152
     71  NE1       21.0590   30.2580   13.4010 N.ar  177  TRP177     -0.2442
     72  CE2       21.5950   31.3430   12.9910 C.ar  177  TRP177      0.0810
     73  CE3       23.8060   32.2980   12.7620 C.ar  177  TRP177      0.0012
     74  CZ2       20.9200   32.4410   12.4380 C.ar  177  TRP177      0.0191
     75  CZ3       23.1170   33.3940   12.1920 C.ar  177  TRP177      0.0001
     76  CH2       21.7350   33.4750   12.0770 C.ar  177  TRP177      0.0015
@<TRIPOS>BOND
     1    43    42    2
     2    42    44   am
     3    42    41    1
     4    34    33    2
     5    40    41    1
     6    40    37    1
     7    39    38    2
     8    38    37    1
     9    33    32    1
    10    35    32    1
    11    37    36    1
    12    32    31    1
    13    29    28    2
    14    31    28   am
    15    76    75   ar
    16    76    74   ar
    17    10    11    1
    18    28    27    1
    19    75    73   ar
    20    52    50   ar
    21    74    72   ar
    22    73    70   ar
    23    11    12    1
    24    72    70   ar
    25    72    71   ar
    26    70    68   ar
    27     4     3    2
    28    71    69   ar
    29     3     2    1
    30    50    51   ar
    31    50    49    1
    32    27    30    1
    33    27    26    1
    34    68    69   ar
    35    68    67    1
    36    67    64    1
    37    12    13    2
    38    12    14   am
    39    49    46    1
    40     6     7    1
    41     6     5    1
    42     9     7   am
    43    64    65    1
    44    64    63    1
    45     7     8    2
    46     2     1    1
    47     2     5    1
    48    14    15    1
    49    48    47    2
    50    65    66    2
    51    46    47    1
    52    46    45    1
    53    47    53   am
    54    57    58    1
    55    57    54    1
    56    19    18    1
    57    59    58   ar
    58    59    61   ar
    59    58    60   ar
    60    61    62   ar
    61    60    62   ar
    62    15    18    1
    63    15    16    1
    64    53    54    1
    65    54    55    1
    66    25    24    1
    67    20    16   am
    68    20    21    1
    69    16    17    2
    70    24    21    1
    71    21    22    1
    72    55    56    2
    73    22    23    2
