@<TRIPOS>MOLECULE
tmp/2panA01.pdb
 155 151 0 0 0
SMALL
GASTEIGER

@<TRIPOS>ATOM
      1  N        -28.9030   37.1010  -47.8880 N.3   376  ILE376     -0.1231
      2  CA       -29.8700   36.7110  -46.8670 C.3   376  ILE376      0.1692
      3  C        -29.6770   35.2520  -46.4680 C.2   376  ILE376      0.2593
      4  O        -29.1960   34.4430  -47.2620 O.2   376  ILE376     -0.2718
      5  CB       -31.3170   36.9660  -47.3460 C.3   376  ILE376      0.0266
      6  CG1      -32.2670   37.0490  -46.1520 C.3   376  ILE376      0.0019
      7  CG2      -31.7780   35.9030  -48.3390 C.3   376  ILE376      0.0020
      8  CD1      -33.5710   37.7020  -46.4770 C.3   376  ILE376      0.0001
      9  N        -30.0580   34.9280  -45.2330 N.am  377  GLY377     -0.1942
     10  CA       -29.9650   33.5660  -44.6960 C.3   377  GLY377      0.2014
     11  C        -29.2870   33.5510  -43.3430 C.2   377  GLY377      0.2639
     12  O        -28.8510   34.5940  -42.8460 O.2   377  GLY377     -0.2714
     13  N        -29.2080   32.3730  -42.7210 N.am  378  LEU378     -0.1963
     14  CA       -28.4210   32.2120  -41.4870 C.3   378  LEU378      0.1728
     15  C        -26.9620   32.5020  -41.8020 C.2   378  LEU378      0.2616
     16  O        -26.2110   32.9860  -40.9570 O.2   378  LEU378     -0.2715
     17  CB       -28.5700   30.8100  -40.9040 C.3   378  LEU378      0.0311
     18  CG       -29.9760   30.4000  -40.4350 C.3   378  LEU378      0.0022
     19  CD1      -29.9740   28.9690  -39.8860 C.3   378  LEU378      0.0001
     20  CD2      -30.5510   31.3840  -39.4030 C.3   378  LEU378      0.0001
     21  N        -26.5830   32.2030  -43.0400 N.am  379  SER379     -0.1950
     22  CA       -25.2830   32.5490  -43.5830 C.3   379  SER379      0.1924
     23  C        -24.9330   34.0230  -43.3800 C.2   379  SER379      0.2314
     24  O        -23.8740   34.3280  -42.8430 O.2   379  SER379     -0.2863
     25  CB       -25.2550   32.2090  -45.0770 C.3   379  SER379      0.2116
     26  OG       -26.4020   32.7020  -45.7390 O.3   379  SER379     -0.2180
     27  N        -34.7240   44.1200  -49.4210 N.3   400  ALA400     -0.1231
     28  CA       -35.3950   43.1590  -50.3050 C.3   400  ALA400      0.1694
     29  C        -34.8040   41.7600  -50.1820 C.2   400  ALA400      0.2593
     30  O        -35.5280   40.7740  -50.2320 O.2   400  ALA400     -0.2718
     31  CB       -35.3460   43.6230  -51.7410 C.3   400  ALA400      0.0304
     32  N        -33.4880   41.6760  -50.0330 N.am  401  GLY401     -0.1943
     33  CA       -32.7880   40.3910  -49.8850 C.3   401  GLY401      0.1998
     34  C        -33.1860   39.2690  -50.8420 C.2   401  GLY401      0.2481
     35  O        -33.5460   38.1840  -50.3900 O.2   401  GLY401     -0.2729
     36  N        -33.0940   39.5000  -52.1660 N.am  402  PRO402     -0.2715
     37  CA       -33.5010   38.4630  -53.1100 C.3   402  PRO402      0.1536
     38  C        -32.4280   37.3830  -53.2550 C.2   402  PRO402      0.2598
     39  O        -31.2710   37.6940  -53.5150 O.2   402  PRO402     -0.2715
     40  CB       -33.6750   39.2290  -54.4250 C.3   402  PRO402      0.0310
     41  CG       -32.7610   40.3810  -54.3180 C.3   402  PRO402      0.0237
     42  CD       -32.5720   40.6920  -52.8550 C.3   402  PRO402      0.0939
     43  N        -32.8140   36.1250  -53.0700 N.am  403  LEU403     -0.1978
     44  CA       -31.8830   35.0140  -53.2170 C.3   403  LEU403      0.1596
     45  C        -31.3070   34.9900  -54.6270 C.2   403  LEU403      0.2287
     46  O        -32.0130   35.2490  -55.5920 O.2   403  LEU403     -0.2864
     47  CB       -32.5800   33.6870  -52.8990 C.3   403  LEU403      0.0297
     48  CG       -32.8520   33.4230  -51.4090 C.3   403  LEU403      0.0022
     49  CD1      -33.8540   32.3090  -51.2470 C.3   403  LEU403      0.0001
     50  CD2      -31.5620   33.1030  -50.6320 C.3   403  LEU403      0.0001
     51  N        -25.1170   30.9640  -48.3580 N.3   427  GLY427     -0.1210
     52  CA       -25.5690   29.6170  -48.0390 C.3   427  GLY427      0.1956
     53  C        -25.7660   28.8380  -49.3240 C.2   427  GLY427      0.2612
     54  O        -25.6520   29.4030  -50.4100 O.2   427  GLY427     -0.2717
     55  N        -26.0630   27.5440  -49.2050 N.am  428  ASP428     -0.1959
     56  CA       -26.1720   26.6670  -50.3740 C.3   428  ASP428      0.1840
     57  C        -27.3360   27.0440  -51.3080 C.2   428  ASP428      0.2622
     58  O        -27.1960   26.9970  -52.5330 O.2   428  ASP428     -0.2715
     59  CB       -26.1790   25.1680  -49.9850 C.3   428  ASP428      0.1450
     60  CG       -27.1640   24.8130  -48.8600 C.2   428  ASP428      0.3671
     61  OD1      -27.1950   25.4810  -47.8000 O.co2 428  ASP428     -0.2456
     62  OD2      -27.8850   23.8110  -49.0250 O.co2 428  ASP428     -0.2456
     63  N        -28.4570   27.4600  -50.7340 N.am  429  PHE429     -0.1960
     64  CA       -29.6430   27.7990  -51.5200 C.3   429  PHE429      0.1771
     65  C        -29.4620   29.1200  -52.2880 C.2   429  PHE429      0.2619
     66  O        -29.7850   29.2010  -53.4760 O.2   429  PHE429     -0.2715
     67  CB       -30.8540   27.8430  -50.5930 C.3   429  PHE429      0.0574
     68  CG       -32.1700   27.6640  -51.2790 C.ar  429  PHE429     -0.0200
     69  CD1      -32.3980   26.5910  -52.1260 C.ar  429  PHE429     -0.0042
     70  CD2      -33.2190   28.5470  -51.0220 C.ar  429  PHE429     -0.0042
     71  CE1      -33.6270   26.4210  -52.7320 C.ar  429  PHE429     -0.0003
     72  CE2      -34.4490   28.3740  -51.6190 C.ar  429  PHE429     -0.0003
     73  CZ       -34.6500   27.3100  -52.4760 C.ar  429  PHE429     -0.0000
     74  N        -28.9340   30.1430  -51.6150 N.am  430  ASP430     -0.1971
     75  CA       -28.5820   31.4170  -52.2690 C.3   430  ASP430      0.1709
     76  C        -27.6070   31.1790  -53.4330 C.2   430  ASP430      0.2293
     77  O        -27.7780   31.7160  -54.5230 O.2   430  ASP430     -0.2864
     78  CB       -27.9520   32.3820  -51.2500 C.3   430  ASP430      0.1436
     79  CG       -27.4870   33.7190  -51.8790 C.2   430  ASP430      0.3671
     80  OD1      -28.2720   34.3720  -52.6100 O.co2 430  ASP430     -0.2456
     81  OD2      -26.3330   34.1290  -51.6270 O.co2 430  ASP430     -0.2456
     82  N        -29.4550   29.5900  -56.7240 N.3   433  PHE433     -0.1241
     83  CA       -30.4050   30.4220  -57.5030 C.3   433  PHE433      0.1605
     84  C        -29.8550   30.8820  -58.8550 C.2   433  PHE433      0.2264
     85  O        -30.4870   30.6590  -59.8810 O.2   433  PHE433     -0.2867
     86  CB       -30.8240   31.6690  -56.7210 C.3   433  PHE433      0.0534
     87  CG       -32.1810   31.5710  -56.0940 C.ar  433  PHE433     -0.0203
     88  CD1      -32.4570   30.5780  -55.1530 C.ar  433  PHE433     -0.0042
     89  CD2      -33.1740   32.4910  -56.4140 C.ar  433  PHE433     -0.0042
     90  CE1      -33.7040   30.4990  -54.5540 C.ar  433  PHE433     -0.0003
     91  CE2      -34.4260   32.4210  -55.8240 C.ar  433  PHE433     -0.0003
     92  CZ       -34.6960   31.4320  -54.8890 C.ar  433  PHE433     -0.0000
     93  N        -21.2020   28.3720  -47.2910 N.3   453  VAL453     -0.1245
     94  CA       -21.4590   27.6110  -46.0750 C.3   453  VAL453      0.1561
     95  C        -22.6630   26.7180  -46.3230 C.2   453  VAL453      0.2260
     96  O        -23.7760   27.2000  -46.4980 O.2   453  VAL453     -0.2867
     97  CB       -21.5690   28.5360  -44.8190 C.3   453  VAL453      0.0252
     98  CG1      -20.2870   29.3590  -44.6760 C.3   453  VAL453      0.0019
     99  CG2      -22.7740   29.4570  -44.8610 C.3   453  VAL453      0.0019
    100  N        -25.2430   23.6820  -45.4750 N.3   455  ASN455     -0.1240
    101  CA       -25.9510   22.8570  -44.5030 C.3   455  ASN455      0.1653
    102  C        -27.0990   22.0330  -45.1070 C.2   455  ASN455      0.2266
    103  O        -27.8930   21.4510  -44.3710 O.2   455  ASN455     -0.2867
    104  CB       -26.4590   23.7350  -43.3510 C.3   455  ASN455      0.1155
    105  CG       -27.4940   24.7530  -43.7880 C.2   455  ASN455      0.2627
    106  OD1      -28.0050   24.7070  -44.9080 O.2   455  ASN455     -0.2716
    107  ND2      -27.8140   25.6800  -42.8990 N.am  455  ASN455     -0.0877
    108  N        -29.8530   22.8830  -46.3780 N.3   457  TYR457     -0.1227
    109  CA       -31.0790   23.3810  -45.7430 C.3   457  TYR457      0.1736
    110  C        -31.3900   24.8030  -46.1730 C.2   457  TYR457      0.2595
    111  O        -30.4750   25.5910  -46.4560 O.2   457  TYR457     -0.2718
    112  CB       -30.9120   23.3890  -44.2250 C.3   457  TYR457      0.0548
    113  CG       -31.7010   22.3390  -43.4570 C.ar  457  TYR457     -0.0200
    114  CD1      -31.0530   21.3250  -42.7610 C.ar  457  TYR457     -0.0009
    115  CD2      -33.0930   22.3850  -43.3990 C.ar  457  TYR457     -0.0009
    116  CE1      -31.7660   20.3700  -42.0520 C.ar  457  TYR457      0.0417
    117  CE2      -33.8130   21.4370  -42.6890 C.ar  457  TYR457      0.0417
    118  CZ       -33.1440   20.4310  -42.0160 C.ar  457  TYR457      0.1957
    119  OH       -33.8570   19.4990  -41.3020 O.3   457  TYR457     -0.2866
    120  N        -32.6790   25.1340  -46.2090 N.am  458  LEU458     -0.1966
    121  CA       -33.1030   26.5380  -46.1280 C.3   458  LEU458      0.1728
    122  C        -33.0680   26.8480  -44.6320 C.2   458  LEU458      0.2617
    123  O        -34.0730   26.7410  -43.9310 O.2   458  LEU458     -0.2715
    124  CB       -34.5030   26.7910  -46.7040 C.3   458  LEU458      0.0311
    125  CG       -34.9710   26.1290  -48.0110 C.3   458  LEU458      0.0022
    126  CD1      -36.0860   26.9490  -48.6190 C.3   458  LEU458      0.0001
    127  CD2      -33.8700   25.9370  -49.0190 C.3   458  LEU458      0.0001
    128  N        -31.8840   27.1950  -44.1470 N.am  459  GLY459     -0.1940
    129  CA       -31.6370   27.3130  -42.7250 C.3   459  GLY459      0.2014
    130  C        -32.5570   28.2730  -41.9960 C.2   459  GLY459      0.2639
    131  O        -33.1840   27.9010  -41.0030 O.2   459  GLY459     -0.2714
    132  N        -32.6160   29.5100  -42.4850 N.am  460  LEU460     -0.1963
    133  CA       -33.3940   30.5680  -41.8510 C.3   460  LEU460      0.1728
    134  C        -34.8520   30.1640  -41.7200 C.2   460  LEU460      0.2616
    135  O        -35.4570   30.3460  -40.6610 O.2   460  LEU460     -0.2715
    136  CB       -33.2650   31.8770  -42.6490 C.3   460  LEU460      0.0311
    137  CG       -33.9500   33.1470  -42.1160 C.3   460  LEU460      0.0022
    138  CD1      -33.4210   33.5590  -40.7530 C.3   460  LEU460      0.0001
    139  CD2      -33.7660   34.2750  -43.0900 C.3   460  LEU460      0.0001
    140  N        -35.3960   29.5840  -42.7840 N.am  461  ILE461     -0.1977
    141  CA       -36.8110   29.2010  -42.8250 C.3   461  ILE461      0.1596
    142  C        -37.0760   28.0430  -41.8720 C.2   461  ILE461      0.2287
    143  O        -38.0730   28.0560  -41.1580 O.2   461  ILE461     -0.2864
    144  CB       -37.2890   28.8070  -44.2490 C.3   461  ILE461      0.0276
    145  CG1      -36.8210   29.8210  -45.3000 C.3   461  ILE461      0.0022
    146  CG2      -38.8130   28.6980  -44.2990 C.3   461  ILE461      0.0022
    147  CD1      -37.0720   31.2920  -44.9330 C.3   461  ILE461      0.0001
    148  N        -21.1300   22.3850  -43.2350 N.3   535  LEU535     -0.1245
    149  CA       -21.6250   22.7080  -41.9060 C.3   535  LEU535      0.1561
    150  C        -22.3800   21.5510  -41.2800 C.2   535  LEU535      0.2260
    151  O        -22.8230   20.6280  -41.9720 O.2   535  LEU535     -0.2867
    152  CB       -22.5690   23.9070  -41.9720 C.3   535  LEU535      0.0270
    153  CG       -22.0160   25.2250  -42.5120 C.3   535  LEU535      0.0019
    154  CD1      -23.1320   26.2510  -42.5150 C.3   535  LEU535      0.0001
    155  CD2      -20.8220   25.7030  -41.6980 C.3   535  LEU535      0.0001
@<TRIPOS>BOND
     1    85    84    2
     2    84    83    1
     3    83    82    1
     4    83    86    1
     5    86    87    1
     6    89    87   ar
     7    89    91   ar
     8    87    88   ar
     9    91    92   ar
    10    46    45    2
    11    88    90   ar
    12    92    90   ar
    13    45    44    1
    14    77    76    2
    15    40    41    1
    16    40    37    1
    17    41    42    1
    18    39    38    2
    19    66    65    2
    20    76    75    1
    21    38    37    1
    22    38    43   am
    23    44    43    1
    24    44    47    1
    25    37    36    1
    26    47    48    1
    27    42    36    1
    28    71    73   ar
    29    71    69   ar
    30    80    79   ar
    31    58    57    2
    32    73    72   ar
    33    65    74   am
    34    65    64    1
    35    75    74    1
    36    75    78    1
    37    36    34   am
    38    69    68   ar
    39    79    81   ar
    40    79    78    1
    41    31    28    1
    42    72    70   ar
    43    64    63    1
    44    64    67    1
    45    48    49    1
    46    48    50    1
    47    57    63   am
    48    57    56    1
    49    68    70   ar
    50    68    67    1
    51    34    35    2
    52    34    33    1
    53    54    53    2
    54    56    59    1
    55    56    55    1
    56    28    29    1
    57    28    27    1
    58    30    29    2
    59    29    32   am
    60    32    33    1
    61    59    60    1
    62    53    55   am
    63    53    52    1
    64    62    60   ar
    65   127   125    1
    66    60    61   ar
    67   126   125    1
    68    51    52    1
    69     7     5    1
    70   125   124    1
    71     1     2    1
    72     5     2    1
    73     5     6    1
    74    93    94    1
    75     4     3    2
    76     2     3    1
    77   124   121    1
    78    96    95    2
    79     8     6    1
    80     3     9   am
    81   111   110    2
    82   108   109    1
    83    95    94    1
    84   120   110   am
    85   120   121    1
    86   110   109    1
    87   121   122    1
    88    94    97    1
    89   109   112    1
    90    26    25    1
    91   100   101    1
    92   145   147    1
    93   145   144    1
    94     9    10    1
    95   102   101    1
    96   102   103    2
    97    25    22    1
    98   106   105    2
    99    99    97    1
   100    97    98    1
   101    10    11    1
   102   122   128   am
   103   122   123    2
   104   101   104    1
   105   146   144    1
   106   144   141    1
   107   112   113    1
   108   128   129    1
   109   105   104    1
   110   105   107   am
   111    22    23    1
   112    22    21    1
   113   113   115   ar
   114   113   114   ar
   115   115   117   ar
   116    23    24    2
   117    11    12    2
   118    11    13   am
   119   148   149    1
   120   139   137    1
   121    21    15   am
   122   141   140    1
   123   141   142    1
   124   140   134   am
   125   114   116   ar
   126   129   130    1
   127    13    14    1
   128   117   118   ar
   129   136   137    1
   130   136   133    1
   131   154   153    1
   132   153   152    1
   133   153   155    1
   134   132   130   am
   135   132   133    1
   136   137   138    1
   137   116   118   ar
   138   118   119    1
   139   130   131    2
   140   151   150    2
   141   152   149    1
   142   149   150    1
   143   142   143    2
   144   133   134    1
   145    15    14    1
   146    15    16    2
   147   134   135    2
   148    14    17    1
   149    17    18    1
   150    18    19    1
   151    18    20    1
