@<TRIPOS>MOLECULE
tmp/2panE00.pdb
 76 73 0 0 0
SMALL
GASTEIGER

@<TRIPOS>ATOM
      1  N        -41.1610   27.8760 -128.6100 N.3    22  VAL22      -0.1231
      2  CA       -40.0250   28.1410 -127.7460 C.3    22  VAL22       0.1678
      3  C        -40.5590   28.8290 -126.4920 C.2    22  VAL22       0.2434
      4  O        -41.0960   29.9340 -126.5820 O.2    22  VAL22      -0.2733
      5  CB       -38.9920   29.0530 -128.4390 C.3    22  VAL22       0.0265
      6  CG1      -37.7730   29.2690 -127.5370 C.3    22  VAL22       0.0020
      7  CG2      -38.5590   28.4530 -129.7760 C.3    22  VAL22       0.0020
      8  N        -40.4210   28.1840 -125.3160 N.am   23  PRO23      -0.2718
      9  CA       -41.0250   28.7620 -124.1170 C.3    23  PRO23       0.1535
     10  C        -40.2530   29.9470 -123.5420 C.2    23  PRO23       0.2599
     11  O        -39.1190   30.2210 -123.9410 O.2    23  PRO23      -0.2715
     12  CB       -41.0370   27.5940 -123.1320 C.3    23  PRO23       0.0310
     13  CG       -39.8860   26.7670 -123.5230 C.3    23  PRO23       0.0237
     14  CD       -39.7200   26.9250 -125.0150 C.3    23  PRO23       0.0939
     15  N        -40.9070   30.6380 -122.6150 N.am   24  GLY24      -0.1941
     16  CA       -40.3580   31.8090 -121.9450 C.3    24  GLY24       0.2014
     17  C        -41.2190   32.1480 -120.7420 C.2    24  GLY24       0.2638
     18  O        -42.3480   31.6580 -120.6190 O.2    24  GLY24      -0.2714
     19  N        -40.6920   32.9860 -119.8570 N.am   25  ALA25      -0.1977
     20  CA       -41.3830   33.3200 -118.6130 C.3    25  ALA25       0.1597
     21  C        -42.7870   33.8820 -118.8700 C.2    25  ALA25       0.2287
     22  O        -43.7420   33.4910 -118.2000 O.2    25  ALA25      -0.2864
     23  CB       -40.5520   34.2890 -117.7780 C.3    25  ALA25       0.0319
     24  N        -35.1090   28.0200 -133.1490 N.3    46  HIS46      -0.1226
     25  CA       -35.3000   29.4260 -133.5040 C.3    46  HIS46       0.1752
     26  C        -36.8150   29.6150 -133.5860 C.2    46  HIS46       0.2595
     27  O        -37.5150   28.7270 -134.0890 O.2    46  HIS46      -0.2718
     28  CB       -34.6450   29.7950 -134.8460 C.3    46  HIS46       0.0759
     29  CG       -34.4300   31.2720 -135.0300 C.ar   46  HIS46       0.0818
     30  ND1      -33.2550   31.7950 -135.5220 N.ar   46  HIS46      -0.2268
     31  CD2      -35.2250   32.3350 -134.7590 C.ar   46  HIS46       0.1154
     32  CE1      -33.3410   33.1130 -135.5590 C.ar   46  HIS46       0.1986
     33  NE2      -34.5270   33.4660 -135.1020 N.ar   46  HIS46      -0.2212
     34  N        -37.3250   30.7350 -133.0810 N.am   47  VAL47      -0.1980
     35  CA       -38.7580   31.0200 -133.1740 C.3    47  VAL47       0.1595
     36  C        -39.2420   31.0600 -134.6230 C.2    47  VAL47       0.2287
     37  O        -40.3290   30.5720 -134.9160 O.2    47  VAL47      -0.2864
     38  CB       -39.1320   32.3330 -132.4590 C.3    47  VAL47       0.0276
     39  CG1      -40.5760   32.7430 -132.7860 C.3    47  VAL47       0.0022
     40  CG2      -38.9500   32.1660 -130.9510 C.3    47  VAL47       0.0022
     41  N        -42.6770   33.5310 -126.4530 N.3    70  THR70      -0.1218
     42  CA       -42.7550   34.4500 -125.3200 C.3    70  THR70       0.1862
     43  C        -43.0770   35.8710 -125.8090 C.2    70  THR70       0.2287
     44  O        -43.4990   36.0670 -126.9490 O.2    70  THR70      -0.2866
     45  CB       -41.4510   34.3950 -124.4520 C.3    70  THR70       0.1770
     46  OG1      -41.6890   34.9910 -123.1710 O.3    70  THR70      -0.2211
     47  CG2      -40.2710   35.0960 -125.1140 C.3    70  THR70       0.0375
     48  N        -39.1620   39.8140 -128.4780 N.3    73  PRO73      -0.2102
     49  CA       -38.5380   39.4150 -129.7390 C.3    73  PRO73       0.1504
     50  C        -39.0390   38.0990 -130.3260 C.2    73  PRO73       0.2575
     51  O        -38.7590   37.8090 -131.4930 O.2    73  PRO73      -0.2718
     52  CB       -37.0630   39.2880 -129.3680 C.3    73  PRO73       0.0282
     53  CG       -37.0810   38.9180 -127.9570 C.3    73  PRO73       0.0208
     54  CD       -38.2120   39.6960 -127.3590 C.3    73  PRO73       0.0893
     55  N        -39.7450   37.2990 -129.5330 N.am   74  ALA74      -0.1980
     56  CA       -40.3550   36.0760 -130.0520 C.3    74  ALA74       0.1597
     57  C        -41.4400   36.4360 -131.0690 C.2    74  ALA74       0.2287
     58  O        -41.5360   35.8200 -132.1290 O.2    74  ALA74      -0.2864
     59  CB       -40.9270   35.2390 -128.9200 C.3    74  ALA74       0.0319
     60  N        -40.0050   37.7520 -134.3300 N.3    77  ASP77      -0.1239
     61  CA       -39.4200   36.6480 -135.1120 C.3    77  ASP77       0.1674
     62  C        -40.4690   35.8160 -135.8620 C.2    77  ASP77       0.2266
     63  O        -40.1100   34.8920 -136.6060 O.2    77  ASP77      -0.2867
     64  CB       -38.6200   35.7010 -134.2000 C.3    77  ASP77       0.1410
     65  CG       -37.2560   36.2460 -133.8250 C.2    77  ASP77       0.3668
     66  OD1      -36.8450   37.2820 -134.3980 O.co2  77  ASP77      -0.2456
     67  OD2      -36.5930   35.6200 -132.9600 O.co2  77  ASP77      -0.2456
     68  N        -38.9570   43.3590 -122.3750 N.3   109  GLN109     -0.1245
     69  CA       -39.4630   42.5530 -123.4960 C.3   109  GLN109      0.1566
     70  C        -40.9490   42.7870 -123.8050 C.2   109  GLN109      0.2260
     71  O        -41.6570   41.8720 -124.2270 O.2   109  GLN109     -0.2867
     72  CB       -39.1710   41.0600 -123.2660 C.3   109  GLN109      0.0367
     73  CG       -37.7240   40.6860 -123.5360 C.3   109  GLN109      0.0905
     74  CD       -37.4930   39.1910 -123.4810 C.2   109  GLN109      0.2608
     75  OE1      -38.2130   38.4640 -122.7870 O.2   109  GLN109     -0.2717
     76  NE2      -36.4840   38.7200 -124.2140 N.am  109  GLN109     -0.0878
@<TRIPOS>BOND
     1    63    62    2
     2    62    61    1
     3    32    30   ar
     4    32    33   ar
     5    30    29   ar
     6    61    60    1
     7    61    64    1
     8    33    31   ar
     9    29    28    1
    10    29    31   ar
    11    37    36    2
    12    28    25    1
    13    36    35    1
    14    66    65   ar
    15    64    65    1
    16    27    26    2
    17    65    67   ar
    18    26    25    1
    19    26    34   am
    20    25    24    1
    21    35    34    1
    22    35    38    1
    23    39    38    1
    24    38    40    1
    25    58    57    2
    26    51    50    2
    27    57    56    1
    28    50    49    1
    29    50    55   am
    30    56    55    1
    31    56    59    1
    32     7     5    1
    33    49    52    1
    34    49    48    1
    35    52    53    1
    36     1     2    1
    37    48    54    1
    38     5     2    1
    39     5     6    1
    40    53    54    1
    41     2     3    1
    42    44    43    2
    43     4     3    2
    44     3     8   am
    45    41    42    1
    46    43    42    1
    47    42    45    1
    48     8    14    1
    49     8     9    1
    50    47    45    1
    51    14    13    1
    52    45    46    1
    53    71    70    2
    54    76    74   am
    55     9    10    1
    56     9    12    1
    57    11    10    2
    58    70    69    1
    59    10    15   am
    60    73    74    1
    61    73    72    1
    62    13    12    1
    63    69    72    1
    64    69    68    1
    65    74    75    2
    66    15    16    1
    67    16    17    1
    68    17    18    2
    69    17    19   am
    70    19    20    1
    71    21    20    1
    72    21    22    2
    73    20    23    1
