@<TRIPOS>MOLECULE
tmp/2parB00.pdb
 140 139 0 0 0
SMALL
GASTEIGER

@<TRIPOS>ATOM
      1  N          1.3110  -14.3900   -2.9730 N.3    17  ARG17      -0.1231
      2  CA         1.6080  -15.3280   -4.0460 C.3    17  ARG17       0.1694
      3  C          2.3870  -14.6110   -5.1480 C.2    17  ARG17       0.2592
      4  O          2.5160  -13.4240   -5.1060 O.2    17  ARG17      -0.2718
      5  CB         0.2940  -15.9190   -4.6250 C.3    17  ARG17       0.0321
      6  CG        -0.2600  -17.0560   -3.7830 C.3    17  ARG17       0.0489
      7  CD        -1.6980  -17.3800   -4.0740 C.3    17  ARG17       0.2205
      8  NE        -1.9400  -17.7220   -5.4520 N.pl3  17  ARG17      -0.0865
      9  CZ        -1.5980  -18.8810   -6.0040 C.cat  17  ARG17       0.5346
     10  NH1       -1.0490  -19.8390   -5.2780 N.pl3  17  ARG17       0.1354
     11  NH2       -1.8250  -19.0720   -7.2890 N.pl3  17  ARG17       0.1354
     12  N          2.8800  -15.3580   -6.1320 N.am   18  TRP18      -0.1963
     13  CA         3.6760  -14.8080   -7.2500 C.3    18  TRP18       0.1756
     14  C          4.7850  -13.7930   -6.8670 C.2    18  TRP18       0.2461
     15  O          4.8470  -12.6920   -7.4320 O.2    18  TRP18      -0.2730
     16  CB         2.7210  -14.1510   -8.2560 C.3    18  TRP18       0.0590
     17  CG         1.6700  -15.0900   -8.8770 C.ar   18  TRP18       0.0006
     18  CD1        0.3730  -15.3140   -8.4220 C.ar   18  TRP18       0.0946
     19  CD2        1.8250  -15.9020  -10.0430 C.ar   18  TRP18       0.0152
     20  NE1       -0.2360  -16.2420   -9.2190 N.ar   18  TRP18      -0.2442
     21  CE2        0.6110  -16.6120  -10.2230 C.ar   18  TRP18       0.0810
     22  CE3        2.8690  -16.1130  -10.9450 C.ar   18  TRP18       0.0012
     23  CZ2        0.4020  -17.4880  -11.2870 C.ar   18  TRP18       0.0191
     24  CZ3        2.6620  -16.9830  -11.9900 C.ar   18  TRP18       0.0001
     25  CH2        1.4250  -17.6660  -12.1530 C.ar   18  TRP18       0.0015
     26  N          5.6780  -14.1620   -5.9140 N.am   19  PRO19      -0.2716
     27  CA         6.6380  -13.1920   -5.3650 C.3    19  PRO19       0.1536
     28  C          7.7220  -12.7430   -6.3360 C.2    19  PRO19       0.2598
     29  O          8.4190  -11.7700   -6.0560 O.2    19  PRO19      -0.2715
     30  CB         7.3230  -13.9780   -4.2480 C.3    19  PRO19       0.0310
     31  CG         7.2380  -15.4000   -4.7280 C.3    19  PRO19       0.0237
     32  CD         5.8800  -15.4960   -5.3280 C.3    19  PRO19       0.0939
     33  N          7.9050  -13.4690   -7.4330 N.am   20  LEU20      -0.1964
     34  CA         9.0590  -13.2350   -8.2880 C.3    20  LEU20       0.1728
     35  C          8.7980  -12.2030   -9.3640 C.2    20  LEU20       0.2616
     36  O          9.6870  -11.8590  -10.1460 O.2    20  LEU20      -0.2715
     37  CB         9.4960  -14.5480   -8.9330 C.3    20  LEU20       0.0311
     38  CG         9.8360  -15.6770   -7.9590 C.3    20  LEU20       0.0022
     39  CD1       10.3120  -16.9310   -8.7250 C.3    20  LEU20       0.0001
     40  CD2       10.8920  -15.2130   -6.9580 C.3    20  LEU20       0.0001
     41  N          7.5740  -11.7170   -9.4260 N.am   21  MET21      -0.1977
     42  CA         7.2400  -10.7200  -10.4260 C.3    21  MET21       0.1605
     43  C          6.6800   -9.5240   -9.7700 C.2    21  MET21       0.2287
     44  O          6.1500   -9.6180   -8.6650 O.2    21  MET21      -0.2864
     45  CB         6.2170  -11.2760  -11.4100 C.3    21  MET21       0.0413
     46  CG         6.8580  -12.2770  -12.3260 C.3    21  MET21       0.0598
     47  SD         6.2280  -13.8810  -11.9550 S.3    21  MET21      -0.1393
     48  CE         4.9010  -13.9290  -13.1430 C.3    21  MET21       0.0692
     49  N         -6.8240  -16.5250   -3.5020 N.3    32  HIS32      -0.1241
     50  CA        -6.6230  -17.6230   -4.4290 C.3    32  HIS32       0.1621
     51  C         -7.5390  -18.8100   -4.1030 C.2    32  HIS32       0.2264
     52  O         -8.1310  -19.4270   -4.9870 O.2    32  HIS32      -0.2867
     53  CB        -5.1130  -18.0360   -4.3420 C.3    32  HIS32       0.0745
     54  CG        -4.7800  -19.3650   -4.9640 C.ar   32  HIS32       0.0817
     55  ND1       -4.8470  -19.5930   -6.3260 N.ar   32  HIS32      -0.2268
     56  CD2       -4.2750  -20.4990   -4.4150 C.ar   32  HIS32       0.1154
     57  CE1       -4.4440  -20.8260   -6.5910 C.ar   32  HIS32       0.1986
     58  NE2       -4.1030  -21.4060   -5.4460 N.ar   32  HIS32      -0.2212
     59  N         -4.4250  -25.1890   -0.1740 N.3    68  ASP68      -0.1239
     60  CA        -3.0920  -24.5560    0.0680 C.3    68  ASP68       0.1674
     61  C         -2.9720  -24.1490    1.5110 C.2    68  ASP68       0.2266
     62  O         -2.1970  -23.2930    1.8290 O.2    68  ASP68      -0.2867
     63  CB        -2.8530  -23.3220   -0.7950 C.3    68  ASP68       0.1410
     64  CG        -2.4930  -23.6650   -2.2590 C.2    68  ASP68       0.3668
     65  OD1       -2.0420  -24.8040   -2.5970 O.co2  68  ASP68      -0.2456
     66  OD2       -2.6490  -22.7400   -3.0760 O.co2  68  ASP68      -0.2456
     67  N          4.5930  -19.4280    0.8410 N.3    76  ASP76      -0.1225
     68  CA         4.3370  -19.7760   -0.5310 C.3    76  ASP76       0.1805
     69  C          5.7200  -20.1480   -1.1110 C.2    76  ASP76       0.2598
     70  O          6.7330  -19.6070   -0.6750 O.2    76  ASP76      -0.2718
     71  CB         3.7070  -18.5400   -1.1850 C.3    76  ASP76       0.1424
     72  CG         3.3510  -18.7560   -2.6130 C.2    76  ASP76       0.3668
     73  OD1        2.5830  -19.6910   -2.9330 O.co2  76  ASP76      -0.2456
     74  OD2        3.8800  -18.0160   -3.3980 O.co2  76  ASP76      -0.2456
     75  N          5.7930  -21.1550   -1.9790 N.am   77  LEU77      -0.1966
     76  CA         7.0150  -21.4120   -2.7430 C.3    77  LEU77       0.1713
     77  C          6.6320  -21.4670   -4.2110 C.2    77  LEU77       0.2458
     78  O          5.8290  -22.3100   -4.6240 O.2    77  LEU77      -0.2730
     79  CB         7.7100  -22.7170   -2.3190 C.3    77  LEU77       0.0310
     80  CG         9.1300  -23.0520   -2.8470 C.3    77  LEU77       0.0022
     81  CD1        9.8000  -24.2060   -2.0960 C.3    77  LEU77       0.0001
     82  CD2        9.1100  -23.4360   -4.2980 C.3    77  LEU77       0.0001
     83  N          7.2050  -20.5570   -4.9960 N.am   78  PRO78      -0.2716
     84  CA         6.8230  -20.4150   -6.3520 C.3    78  PRO78       0.1536
     85  C          7.1400  -21.7050   -7.1000 C.2    78  PRO78       0.2599
     86  O          8.2170  -22.2640   -6.9540 O.2    78  PRO78      -0.2715
     87  CB         7.6310  -19.2120   -6.8300 C.3    78  PRO78       0.0310
     88  CG         8.6620  -19.0360   -5.9080 C.3    78  PRO78       0.0237
     89  CD         8.2780  -19.6180   -4.6280 C.3    78  PRO78       0.0939
     90  N          6.1590  -22.2020   -7.8390 N.am   79  THR79      -0.1938
     91  CA         6.2620  -23.5500   -8.4250 C.3    79  THR79       0.2013
     92  C          7.5110  -23.7840   -9.3590 C.2    79  THR79       0.2484
     93  O          8.0720  -24.8820   -9.3740 O.2    79  THR79      -0.2729
     94  CB         4.9270  -23.9940   -9.1310 C.3    79  THR79       0.1807
     95  OG1        4.6190  -23.0760  -10.1670 O.3    79  THR79      -0.2208
     96  CG2        3.7530  -24.0820   -8.1550 C.3    79  THR79       0.0379
     97  N          7.9830  -22.7570  -10.0800 N.am   80  PRO80      -0.2726
     98  CA         9.2520  -22.9920  -10.7800 C.3    80  PRO80       0.1402
     99  C         10.4410  -23.1830   -9.8120 C.2    80  PRO80       0.2269
    100  O         10.3840  -22.7640   -8.6020 O.2    80  PRO80      -0.2865
    101  CB         9.4340  -21.7270  -11.6210 C.3    80  PRO80       0.0296
    102  CG         8.0560  -21.0510  -11.6320 C.3    80  PRO80       0.0237
    103  CD         7.4730  -21.4010  -10.3080 C.3    80  PRO80       0.0939
    104  N         -6.8630  -25.0400  -10.0190 N.3   128  ASP128     -0.1225
    105  CA        -5.6580  -24.3150   -9.5690 C.3   128  ASP128      0.1805
    106  C         -4.8910  -23.7400  -10.7910 C.2   128  ASP128      0.2597
    107  O         -4.4720  -22.5740  -10.8010 O.2   128  ASP128     -0.2718
    108  CB        -4.7350  -25.2320   -8.8460 C.3   128  ASP128      0.1424
    109  CG        -3.6560  -24.4600   -8.1180 C.2   128  ASP128      0.3668
    110  OD1       -3.9550  -23.8550   -7.0930 O.co2 128  ASP128     -0.2456
    111  OD2       -2.5130  -24.4520   -8.5740 O.co2 128  ASP128     -0.2456
    112  N         -4.7200  -24.5790  -11.8040 N.am  129  ALA129     -0.1979
    113  CA        -4.0290  -24.1480  -13.0140 C.3   129  ALA129      0.1597
    114  C         -4.8410  -23.0300  -13.7050 C.2   129  ALA129      0.2287
    115  O         -4.2910  -22.0050  -14.0830 O.2   129  ALA129     -0.2864
    116  CB        -3.7950  -25.2900  -13.9180 C.3   129  ALA129      0.0319
    117  N         -4.4640  -19.7670  -11.8240 N.3   132  ALA132     -0.1245
    118  CA        -3.2010  -19.2030  -12.1150 C.3   132  ALA132      0.1562
    119  C         -3.2400  -18.5700  -13.5190 C.2   132  ALA132      0.2260
    120  O         -2.7560  -17.4680  -13.7040 O.2   132  ALA132     -0.2867
    121  CB        -2.1200  -20.2690  -12.0110 C.3   132  ALA132      0.0290
    122  N          3.2880  -20.7420  -20.3980 N.3   153  ARG153     -0.1231
    123  CA         3.5700  -21.9950  -19.6870 C.3   153  ARG153      0.1694
    124  C          2.3300  -22.6470  -19.0960 C.2   153  ARG153      0.2591
    125  O          2.1860  -23.8780  -19.1160 O.2   153  ARG153     -0.2718
    126  CB         4.5630  -21.7420  -18.5540 C.3   153  ARG153      0.0321
    127  CG         4.9540  -22.9860  -17.7640 C.3   153  ARG153      0.0489
    128  CD         5.9450  -22.7460  -16.6300 C.3   153  ARG153      0.2205
    129  NE         5.6960  -21.4850  -15.9220 N.pl3 153  ARG153     -0.0865
    130  CZ         5.0350  -21.4450  -14.7840 C.cat 153  ARG153      0.5346
    131  NH1        4.5690  -22.5460  -14.2390 N.pl3 153  ARG153      0.1354
    132  NH2        4.8140  -20.2990  -14.1670 N.pl3 153  ARG153      0.1354
    133  N          1.4570  -21.8240  -18.5130 N.am  154  LEU154     -0.1980
    134  CA         0.1470  -22.3290  -18.1100 C.3   154  LEU154      0.1596
    135  C         -0.6890  -22.8380  -19.3030 C.2   154  LEU154      0.2287
    136  O         -1.3880  -23.8090  -19.1520 O.2   154  LEU154     -0.2864
    137  CB        -0.6200  -21.3050  -17.3170 C.3   154  LEU154      0.0297
    138  CG        -0.1000  -21.2040  -15.8720 C.3   154  LEU154      0.0022
    139  CD1       -0.5130  -19.8780  -15.3380 C.3   154  LEU154      0.0001
    140  CD2       -0.5960  -22.3470  -15.0250 C.3   154  LEU154      0.0001
@<TRIPOS>BOND
     1   122   123    1
     2   123   124    1
     3   123   126    1
     4   135   136    2
     5   135   134    1
     6   125   124    2
     7   124   133   am
     8   126   127    1
     9   133   134    1
    10   134   137    1
    11   127   128    1
    12   137   138    1
    13   128   129    1
    14   129   130    2
    15   138   139    1
    16   138   140    1
    17   130   131    1
    18   130   132    1
    19   115   114    2
    20   116   113    1
    21   114   113    1
    22   120   119    2
    23   119   118    1
    24    48    47    1
    25   113   112    1
    26    46    47    1
    27    46    45    1
    28    25    24   ar
    29    25    23   ar
    30   118   121    1
    31   118   117    1
    32    24    22   ar
    33   112   106   am
    34   102   101    1
    35   102   103    1
    36   101    98    1
    37    45    42    1
    38    23    21   ar
    39    22    19   ar
    40   107   106    2
    41   106   105    1
    42    98    97    1
    43    98    99    1
    44    42    43    1
    45    42    41    1
    46   103    97    1
    47    21    19   ar
    48    21    20   ar
    49    95    94    1
    50    36    35    2
    51    97    92   am
    52    19    17   ar
    53   104   105    1
    54    99   100    2
    55    43    44    2
    56   105   108    1
    57    41    35   am
    58    93    92    2
    59    35    34    1
    60    92    91    1
    61    20    18   ar
    62    94    91    1
    63    94    96    1
    64    37    34    1
    65    37    38    1
    66    17    18   ar
    67    17    16    1
    68   108   109    1
    69    39    38    1
    70   111   109   ar
    71    91    90    1
    72    34    33    1
    73    16    13    1
    74   109   110   ar
    75    38    40    1
    76    90    85   am
    77    33    28   am
    78    15    14    2
    79    11     9    1
    80    13    14    1
    81    13    12    1
    82    85    86    2
    83    85    84    1
    84    14    26   am
    85    87    84    1
    86    87    88    1
    87    57    55   ar
    88    57    58   ar
    89    84    83    1
    90    28    29    2
    91    28    27    1
    92    55    54   ar
    93    12     3   am
    94     9     8    2
    95     9    10    1
    96    26    27    1
    97    26    32    1
    98    88    89    1
    99     8     7    1
   100    58    56   ar
   101    27    30    1
   102    32    31    1
   103     3     4    2
   104     3     2    1
   105    83    89    1
   106    83    77   am
   107    52    51    2
   108    54    56   ar
   109    54    53    1
   110    31    30    1
   111     5     2    1
   112     5     6    1
   113    78    77    2
   114    50    53    1
   115    50    51    1
   116    50    49    1
   117    82    80    1
   118    77    76    1
   119     7     6    1
   120     2     1    1
   121    74    72   ar
   122    66    64   ar
   123    73    72   ar
   124    80    79    1
   125    80    81    1
   126    76    79    1
   127    76    75    1
   128    72    71    1
   129    65    64   ar
   130    64    63    1
   131    75    69   am
   132    71    68    1
   133    69    70    2
   134    69    68    1
   135    63    60    1
   136    68    67    1
   137    59    60    1
   138    60    61    1
   139    61    62    2
