@<TRIPOS>MOLECULE
tmp/2pauB00.pdb
 162 161 0 0 0
SMALL
GASTEIGER

@<TRIPOS>ATOM
      1  N          1.3020   14.3490   39.6300 N.3    17  ARG17      -0.1231
      2  CA         1.6530   15.2920   40.7300 C.3    17  ARG17       0.1694
      3  C          2.4110   14.5520   41.8660 C.2    17  ARG17       0.2592
      4  O          2.5380   13.3420   41.8320 O.2    17  ARG17      -0.2718
      5  CB         0.3490   15.8930   41.2820 C.3    17  ARG17       0.0321
      6  CG        -0.3070   16.8650   40.3410 C.3    17  ARG17       0.0489
      7  CD        -1.6840   17.1610   40.7540 C.3    17  ARG17       0.2205
      8  NE        -1.7720   17.6780   42.1460 N.pl3  17  ARG17      -0.0865
      9  CZ        -1.3790   18.9020   42.5190 C.cat  17  ARG17       0.5346
     10  NH1       -0.8660   19.7560   41.6520 N.pl3  17  ARG17       0.1354
     11  NH2       -1.5000   19.2640   43.7700 N.pl3  17  ARG17       0.1354
     12  N          2.9280   15.2700   42.8680 N.am   18  TRP18      -0.1963
     13  CA         3.7210   14.6000   43.9350 C.3    18  TRP18       0.1756
     14  C          4.8190   13.6300   43.4250 C.2    18  TRP18       0.2461
     15  O          4.8720   12.4130   43.7860 O.2    18  TRP18      -0.2730
     16  CB         2.7740   13.8780   44.8940 C.3    18  TRP18       0.0590
     17  CG         1.6450   14.7910   45.4480 C.ar   18  TRP18       0.0006
     18  CD1        0.3760   14.9350   44.9620 C.ar   18  TRP18       0.0946
     19  CD2        1.7250   15.6400   46.5860 C.ar   18  TRP18       0.0152
     20  NE1       -0.3310   15.8520   45.7030 N.ar   18  TRP18      -0.2442
     21  CE2        0.4700   16.3030   46.7100 C.ar   18  TRP18       0.0810
     22  CE3        2.7290   15.9100   47.5150 C.ar   18  TRP18       0.0012
     23  CZ2        0.1920   17.1850   47.7280 C.ar   18  TRP18       0.0191
     24  CZ3        2.4620   16.8060   48.5290 C.ar   18  TRP18       0.0001
     25  CH2        1.1960   17.4410   48.6260 C.ar   18  TRP18       0.0015
     26  N          5.6790   14.1350   42.5360 N.am   19  PRO19      -0.2716
     27  CA         6.6600   13.2220   41.9660 C.3    19  PRO19       0.1536
     28  C          7.7590   12.8010   42.9290 C.2    19  PRO19       0.2598
     29  O          8.3300   11.7360   42.7340 O.2    19  PRO19      -0.2715
     30  CB         7.3160   14.0630   40.8830 C.3    19  PRO19       0.0310
     31  CG         7.1780   15.4510   41.4240 C.3    19  PRO19       0.0237
     32  CD         5.8160   15.4830   41.9710 C.3    19  PRO19       0.0939
     33  N          8.0870   13.6410   43.9220 N.am   20  LEU20      -0.1964
     34  CA         9.2620   13.3590   44.7660 C.3    20  LEU20       0.1728
     35  C          8.9270   12.2530   45.7720 C.2    20  LEU20       0.2616
     36  O          9.7610   11.8820   46.6130 O.2    20  LEU20      -0.2715
     37  CB         9.7790   14.6380   45.4610 C.3    20  LEU20       0.0311
     38  CG         9.9670   15.8670   44.5400 C.3    20  LEU20       0.0022
     39  CD1       10.2160   17.2200   45.2770 C.3    20  LEU20       0.0001
     40  CD2       11.0330   15.6230   43.5280 C.3    20  LEU20       0.0001
     41  N          7.7230   11.6960   45.6790 N.am   21  MET21      -0.1977
     42  CA         7.2950   10.7710   46.7000 C.3    21  MET21       0.1605
     43  C          6.6970    9.5540   46.1060 C.2    21  MET21       0.2287
     44  O          6.0980    9.6180   45.0370 O.2    21  MET21      -0.2864
     45  CB         6.2550   11.4140   47.5910 C.3    21  MET21       0.0413
     46  CG         5.9450   12.8120   47.2170 C.3    21  MET21       0.0598
     47  SD         6.2410   13.9560   48.4770 S.3    21  MET21      -0.1393
     48  CE         5.4510   13.1190   49.8390 C.3    21  MET21       0.0692
     49  N         -6.7790   16.3740   40.0970 N.3    32  HIS32      -0.1241
     50  CA        -6.5280   17.5190   40.9830 C.3    32  HIS32       0.1621
     51  C         -7.4830   18.7030   40.7080 C.2    32  HIS32       0.2264
     52  O         -8.2120   19.2290   41.6050 O.2    32  HIS32      -0.2867
     53  CB        -4.9900   17.9160   40.9450 C.3    32  HIS32       0.0745
     54  CG        -4.6870   19.2410   41.5820 C.ar   32  HIS32       0.0817
     55  ND1       -4.8330   19.4770   42.9370 N.ar   32  HIS32      -0.2268
     56  CD2       -4.2450   20.4070   41.0420 C.ar   32  HIS32       0.1154
     57  CE1       -4.5000   20.7320   43.2000 C.ar   32  HIS32       0.1986
     58  NE2       -4.1640   21.3280   42.0610 N.ar   32  HIS32      -0.2212
     59  N         -6.8840   26.2780   36.7010 N.3    67  HIS67      -0.1226
     60  CA        -5.7880   26.9510   37.4100 C.3    67  HIS67       0.1752
     61  C         -4.4300   26.3240   37.1490 C.2    67  HIS67       0.2596
     62  O         -3.4140   27.0430   37.1570 O.2    67  HIS67      -0.2718
     63  CB        -6.0920   27.0440   38.9330 C.3    67  HIS67       0.0759
     64  CG        -5.7610   25.7990   39.6800 C.ar   67  HIS67       0.0818
     65  ND1       -6.5290   24.6580   39.6070 N.ar   67  HIS67      -0.2268
     66  CD2       -4.7020   25.4940   40.4770 C.ar   67  HIS67       0.1154
     67  CE1       -5.9710   23.7110   40.3350 C.ar   67  HIS67       0.1986
     68  NE2       -4.8400   24.1810   40.8430 N.ar   67  HIS67      -0.2212
     69  N         -4.3660   25.0160   36.8900 N.am   68  ASP68      -0.1974
     70  CA        -3.0810   24.3770   36.6180 C.3    68  ASP68       0.1709
     71  C         -2.9200   23.9860   35.1740 C.2    68  ASP68       0.2293
     72  O         -2.0670   23.1790   34.8750 O.2    68  ASP68      -0.2864
     73  CB        -2.9070   23.1200   37.4750 C.3    68  ASP68       0.1436
     74  CG        -2.5770   23.4530   38.9320 C.2    68  ASP68       0.3671
     75  OD1       -2.1330   24.6200   39.1570 O.co2  68  ASP68      -0.2456
     76  OD2       -2.7230   22.5320   39.8120 O.co2  68  ASP68      -0.2456
     77  N          4.6980   19.4260   35.9000 N.3    76  ASP76      -0.1225
     78  CA         4.3660   19.8660   37.2170 C.3    76  ASP76       0.1805
     79  C          5.6660   20.1620   37.9540 C.2    76  ASP76       0.2598
     80  O          6.5320   19.2550   38.0650 O.2    76  ASP76      -0.2718
     81  CB         3.5800   18.7150   37.8530 C.3    76  ASP76       0.1424
     82  CG         3.2810   18.9410   39.3150 C.2    76  ASP76       0.3668
     83  OD1        2.7400   20.0300   39.6330 O.co2  76  ASP76      -0.2456
     84  OD2        3.6270   18.0160   40.0960 O.co2  76  ASP76      -0.2456
     85  N          5.8530   21.3860   38.4630 N.am   77  LEU77      -0.1966
     86  CA         6.9830   21.5940   39.4150 C.3    77  LEU77       0.1713
     87  C          6.6070   21.5250   40.9210 C.2    77  LEU77       0.2458
     88  O          5.7860   22.3120   41.4290 O.2    77  LEU77      -0.2730
     89  CB         7.7970   22.8720   39.1290 C.3    77  LEU77       0.0310
     90  CG         9.1060   23.0550   39.9510 C.3    77  LEU77       0.0022
     91  CD1       10.2410   22.1720   39.4260 C.3    77  LEU77       0.0001
     92  CD2        9.5880   24.4750   39.9430 C.3    77  LEU77       0.0001
     93  N          7.2630   20.5960   41.6560 N.am   78  PRO78      -0.2716
     94  CA         6.9530   20.4210   43.0640 C.3    78  PRO78       0.1536
     95  C          7.1710   21.7060   43.8520 C.2    78  PRO78       0.2599
     96  O          8.1730   22.3990   43.6410 O.2    78  PRO78      -0.2715
     97  CB         7.9310   19.3290   43.5050 C.3    78  PRO78       0.0310
     98  CG         8.2950   18.6290   42.2750 C.3    78  PRO78       0.0237
     99  CD         8.3340   19.6680   41.2260 C.3    78  PRO78       0.0939
    100  N          6.2290   22.0210   44.7380 N.am   79  THR79      -0.1938
    101  CA         6.2670   23.2670   45.5270 C.3    79  THR79       0.2013
    102  C          7.6150   23.5880   46.1780 C.2    79  THR79       0.2484
    103  O          8.1060   24.7000   46.0340 O.2    79  THR79      -0.2729
    104  CB         5.1470   23.3150   46.5920 C.3    79  THR79       0.1807
    105  OG1        3.8830   23.2370   45.9240 O.3    79  THR79      -0.2208
    106  CG2        5.2390   24.6470   47.4290 C.3    79  THR79       0.0379
    107  N          8.2220   22.6230   46.8810 N.am   80  PRO80      -0.2726
    108  CA         9.4960   22.9420   47.5460 C.3    80  PRO80       0.1402
    109  C         10.6680   23.2220   46.6260 C.2    80  PRO80       0.2269
    110  O         11.5290   24.0250   47.0150 O.2    80  PRO80      -0.2865
    111  CB         9.7790   21.7150   48.4200 C.3    80  PRO80       0.0296
    112  CG         8.5050   20.9220   48.4240 C.3    80  PRO80       0.0237
    113  CD         7.7800   21.2540   47.1570 C.3    80  PRO80       0.0939
    114  N         10.0290   30.4160   38.2060 N.3    84  TYR84      -0.1241
    115  CA         8.9170   29.4800   37.9110 C.3    84  TYR84       0.1605
    116  C          7.6340   30.2190   37.6140 C.2    84  TYR84       0.2264
    117  O          6.8580   29.8160   36.7630 O.2    84  TYR84      -0.2867
    118  CB         8.6430   28.4630   39.0050 C.3    84  TYR84       0.0534
    119  CG         7.4670   27.5490   38.6670 C.ar   84  TYR84      -0.0201
    120  CD1        7.3110   26.8910   37.4400 C.ar   84  TYR84      -0.0009
    121  CD2        6.5010   27.3390   39.6560 C.ar   84  TYR84      -0.0009
    122  CE1        6.2220   26.0540   37.1800 C.ar   84  TYR84       0.0417
    123  CE2        5.3950   26.5220   39.4320 C.ar   84  TYR84       0.0417
    124  CZ         5.2660   25.8940   38.1950 C.ar   84  TYR84       0.1957
    125  OH         4.1720   25.1130   37.9950 O.3    84  TYR84      -0.2866
    126  N         -6.8900   25.0090   46.5990 N.3   128  ASP128     -0.1239
    127  CA        -5.6920   24.2670   46.2220 C.3   128  ASP128      0.1674
    128  C         -4.9520   23.5990   47.3860 C.2   128  ASP128      0.2266
    129  O         -4.5520   22.4210   47.3000 O.2   128  ASP128     -0.2867
    130  CB        -4.6960   25.1560   45.5300 C.3   128  ASP128      0.1410
    131  CG        -3.6390   24.3380   44.8830 C.2   128  ASP128      0.3668
    132  OD1       -4.0150   23.5380   44.0000 O.co2 128  ASP128     -0.2456
    133  OD2       -2.4720   24.3770   45.3520 O.co2 128  ASP128     -0.2456
    134  N         -4.4070   19.6840   48.3660 N.3   132  ALA132     -0.1245
    135  CA        -3.0910   19.1340   48.6220 C.3   132  ALA132      0.1562
    136  C         -3.0890   18.4580   50.0190 C.2   132  ALA132      0.2260
    137  O         -2.6630   17.3280   50.2000 O.2   132  ALA132     -0.2867
    138  CB        -2.0140   20.2650   48.5270 C.3   132  ALA132      0.0290
    139  N          4.8040   16.8460   54.3970 N.3   150  ALA150     -0.1245
    140  CA         3.9200   17.6020   53.5210 C.3   150  ALA150      0.1562
    141  C          2.6260   17.9530   54.2570 C.2   150  ALA150      0.2260
    142  O          2.1690   19.0710   54.1420 O.2   150  ALA150     -0.2867
    143  CB         3.6400   16.8300   52.2030 C.3   150  ALA150      0.0290
    144  N          3.5310   21.0020   56.8240 N.3   153  ARG153     -0.1231
    145  CA         3.7320   22.3050   56.1930 C.3   153  ARG153      0.1694
    146  C          2.4690   22.7840   55.5260 C.2   153  ARG153      0.2591
    147  O          2.2200   23.9550   55.5340 O.2   153  ARG153     -0.2718
    148  CB         4.9110   22.3050   55.1880 C.3   153  ARG153      0.0321
    149  CG         5.7620   23.6670   55.2090 C.3   153  ARG153      0.0489
    150  CD         5.3660   24.6930   54.0810 C.3   153  ARG153      0.2205
    151  NE         4.6280   25.8880   54.5250 N.pl3 153  ARG153     -0.0865
    152  CZ         5.0700   27.1650   54.4840 C.cat 153  ARG153      0.5346
    153  NH1        6.2850   27.4770   54.0420 N.pl3 153  ARG153      0.1354
    154  NH2        4.2680   28.1740   54.8830 N.pl3 153  ARG153      0.1354
    155  N          1.6780   21.8900   54.9140 N.am  154  LEU154     -0.1980
    156  CA         0.3680   22.3040   54.3990 C.3   154  LEU154      0.1596
    157  C         -0.5560   22.8220   55.5270 C.2   154  LEU154      0.2287
    158  O         -1.4020   23.7160   55.2730 O.2   154  LEU154     -0.2864
    159  CB        -0.3240   21.2180   53.5730 C.3   154  LEU154      0.0297
    160  CG         0.1840   20.9710   52.1450 C.3   154  LEU154      0.0022
    161  CD1       -0.1710   19.5570   51.6730 C.3   154  LEU154      0.0001
    162  CD2       -0.3330   22.0420   51.2270 C.3   154  LEU154      0.0001
@<TRIPOS>BOND
     1    72    71    2
     2    71    70    1
     3    77    78    1
     4    70    69    1
     5    70    73    1
     6    59    60    1
     7   117   116    2
     8    69    61   am
     9    61    62    2
    10    61    60    1
    11   122   120   ar
    12   122   124   ar
    13    78    81    1
    14    78    79    1
    15    60    63    1
    16   120   119   ar
    17    73    74    1
    18   116   115    1
    19    81    82    1
    20   115   114    1
    21   115   118    1
    22    79    80    2
    23    79    85   am
    24   125   124    1
    25   124   123   ar
    26    85    86    1
    27   119   118    1
    28   119   121   ar
    29    74    75   ar
    30    74    76   ar
    31    63    64    1
    32    89    86    1
    33    89    90    1
    34    82    83   ar
    35    82    84   ar
    36    86    87    1
    37    91    90    1
    38   123   121   ar
    39    65    64   ar
    40    65    67   ar
    41     1     2    1
    42    64    66   ar
    43    92    90    1
    44    49    50    1
    45    67    68   ar
    46     6     7    1
    47     6     5    1
    48    66    68   ar
    49    51    50    1
    50    51    52    2
    51     2     5    1
    52     2     3    1
    53     7     8    1
    54    30    31    1
    55    30    27    1
    56    87    88    2
    57    87    93   am
    58    53    50    1
    59    53    54    1
    60    56    54   ar
    61    56    58   ar
    62    99    93    1
    63    99    98    1
    64    31    32    1
    65    54    55   ar
    66    10     9    1
    67    93    94    1
    68     4     3    2
    69     3    12   am
    70    27    26    1
    71    27    28    1
    72    32    26    1
    73    58    57   ar
    74     8     9    2
    75    98    97    1
    76     9    11    1
    77    26    14   am
    78    29    28    2
    79    12    13    1
    80    28    33   am
    81    55    57   ar
    82    94    97    1
    83    94    95    1
    84    14    15    2
    85    14    13    1
    86    40    38    1
    87    96    95    2
    88    95   100   am
    89    33    34    1
    90    13    16    1
    91   132   131   ar
    92    38    39    1
    93    38    37    1
    94   100   101    1
    95    34    37    1
    96    34    35    1
    97   131   133   ar
    98   131   130    1
    99    16    17    1
   100    18    17   ar
   101    18    20   ar
   102    44    43    2
   103    17    19   ar
   104   101   102    1
   105   101   104    1
   106   130   127    1
   107    41    35   am
   108    41    42    1
   109    20    21   ar
   110    35    36    2
   111   105   104    1
   112   103   102    2
   113    43    42    1
   114   102   107   am
   115   127   126    1
   116   127   128    1
   117    19    21   ar
   118    19    22   ar
   119   104   106    1
   120   109   110    2
   121   109   108    1
   122    42    45    1
   123    21    23   ar
   124   107   113    1
   125   107   108    1
   126   113   112    1
   127    46    45    1
   128    46    47    1
   129   129   128    2
   130    22    24   ar
   131   108   111    1
   132    23    25   ar
   133   134   135    1
   134   111   112    1
   135    47    48    1
   136   138   135    1
   137    24    25   ar
   138   135   136    1
   139   136   137    2
   140   162   160    1
   141   161   160    1
   142   160   159    1
   143   143   140    1
   144   140   141    1
   145   140   139    1
   146   159   156    1
   147   153   152    1
   148   150   151    1
   149   150   149    1
   150   142   141    2
   151   156   155    1
   152   156   157    1
   153   152   151    2
   154   152   154    1
   155   155   146   am
   156   148   149    1
   157   148   145    1
   158   158   157    2
   159   146   147    2
   160   146   145    1
   161   145   144    1
