@<TRIPOS>MOLECULE
tmp/2paxA00.pdb
 92 90 0 0 0
SMALL
GASTEIGER

@<TRIPOS>ATOM
      1  N         47.2920   26.4040   22.5280 N.3   201  HIS201     -0.1226
      2  CA        46.2690   26.4940   21.4920 C.3   201  HIS201      0.1752
      3  C         46.8500   25.9970   20.1630 C.2   201  HIS201      0.2597
      4  O         47.7790   26.5970   19.6200 O.2   201  HIS201     -0.2718
      5  CB        45.7360   27.9040   21.3180 C.3   201  HIS201      0.0759
      6  CG        44.5670   27.9670   20.3900 C.ar  201  HIS201      0.0818
      7  ND1       43.2690   27.7920   20.8210 N.ar  201  HIS201     -0.2268
      8  CD2       44.5000   28.1280   19.0480 C.ar  201  HIS201      0.1154
      9  CE1       42.4540   27.8460   19.7840 C.ar  201  HIS201      0.1986
     10  NE2       43.1750   28.0500   18.6970 N.ar  201  HIS201     -0.2212
     11  N         46.3260   24.8790   19.6680 N.am  202  GLY202     -0.1942
     12  CA        46.8060   24.3230   18.4120 C.3   202  GLY202      0.2014
     13  C         45.8270   24.6030   17.2910 C.2   202  GLY202      0.2639
     14  O         44.6340   24.7500   17.5480 O.2   202  GLY202     -0.2714
     15  N         46.3140   24.6570   16.0510 N.am  203  SER203     -0.1949
     16  CA        45.4690   24.9310   14.8850 C.3   203  SER203      0.1924
     17  C         46.2000   24.5560   13.5840 C.2   203  SER203      0.2314
     18  O         47.4070   24.3450   13.5900 O.2   203  SER203     -0.2863
     19  CB        45.1480   26.4260   14.8680 C.3   203  SER203      0.2116
     20  OG        44.0040   26.7020   14.0880 O.3   203  SER203     -0.2180
     21  N         31.5080   22.1490   21.9890 N.3   229  MET229     -0.1245
     22  CA        31.3450   21.4720   23.2790 C.3   229  MET229      0.1570
     23  C         30.9460   22.3280   24.4750 C.2   229  MET229      0.2261
     24  O         30.0330   21.9550   25.2110 O.2   229  MET229     -0.2867
     25  CB        32.5750   20.6380   23.6260 C.3   229  MET229      0.0387
     26  CG        32.3140   19.6830   24.7830 C.3   229  MET229      0.0595
     27  SD        33.5860   18.4420   25.0130 S.3   229  MET229     -0.1393
     28  CE        33.1240   17.2620   23.7180 C.3   229  MET229      0.0692
     29  N         39.1910   28.0730   23.0380 N.3   235  TYR235     -0.1227
     30  CA        39.6800   26.8990   23.7440 C.3   235  TYR235      0.1736
     31  C         41.1740   26.7820   23.9030 C.2   235  TYR235      0.2595
     32  O         41.9120   27.0540   22.9720 O.2   235  TYR235     -0.2718
     33  CB        39.1570   25.6310   23.0740 C.3   235  TYR235      0.0548
     34  CG        37.6610   25.4690   23.1250 C.ar  235  TYR235     -0.0200
     35  CD1       36.8240   26.3630   22.4520 C.ar  235  TYR235     -0.0009
     36  CD2       37.0770   24.4270   23.8510 C.ar  235  TYR235     -0.0009
     37  CE1       35.4460   26.2300   22.5040 C.ar  235  TYR235      0.0417
     38  CE2       35.6920   24.2840   23.9050 C.ar  235  TYR235      0.0417
     39  CZ        34.8860   25.1950   23.2290 C.ar  235  TYR235      0.1957
     40  OH        33.5150   25.0960   23.2890 O.3   235  TYR235     -0.2866
     41  N         41.5890   26.2880   25.0740 N.am  236  PHE236     -0.1962
     42  CA        42.9960   26.0940   25.4250 C.3   236  PHE236      0.1771
     43  C         43.1720   24.7840   26.1830 C.2   236  PHE236      0.2619
     44  O         42.1970   24.2140   26.6630 O.2   236  PHE236     -0.2715
     45  CB        43.4880   27.2340   26.3170 C.3   236  PHE236      0.0574
     46  CG        43.4090   28.5800   25.6760 C.ar  236  PHE236     -0.0200
     47  CD1       44.4760   29.0740   24.9370 C.ar  236  PHE236     -0.0042
     48  CD2       42.2760   29.3560   25.8130 C.ar  236  PHE236     -0.0042
     49  CE1       44.4130   30.3100   24.3520 C.ar  236  PHE236     -0.0003
     50  CE2       42.2040   30.5960   25.2280 C.ar  236  PHE236     -0.0003
     51  CZ        43.2740   31.0790   24.4940 C.ar  236  PHE236     -0.0000
     52  N         44.4190   24.3500   26.3470 N.am  237  ALA237     -0.1977
     53  CA        44.7220   23.1200   27.0550 C.3   237  ALA237      0.1597
     54  C         45.9760   23.3200   27.8870 C.2   237  ALA237      0.2287
     55  O         46.6950   24.3010   27.6910 O.2   237  ALA237     -0.2864
     56  CB        44.9550   22.0040   26.0570 C.3   237  ALA237      0.0319
     57  N         47.1290   17.4660   23.9840 N.3   242  LYS242     -0.1231
     58  CA        45.7610   17.7530   23.5820 C.3   242  LYS242      0.1693
     59  C         45.6690   18.7680   22.4320 C.2   242  LYS242      0.2592
     60  O         44.9550   18.5520   21.4600 O.2   242  LYS242     -0.2718
     61  CB        44.9380   18.2180   24.7860 C.3   242  LYS242      0.0285
     62  CG        43.5440   18.6830   24.4000 C.3   242  LYS242      0.0035
     63  CD        42.4800   18.2630   25.3910 C.3   242  LYS242      0.0206
     64  CE        41.0970   18.5400   24.8240 C.3   242  LYS242      0.1093
     65  NZ        40.8640   17.8960   23.4880 N.3   242  LYS242     -0.1314
     66  N         46.3840   19.8780   22.5590 N.am  243  SER243     -0.1952
     67  CA        46.3850   20.9210   21.5370 C.3   243  SER243      0.1924
     68  C         47.0680   20.4470   20.2570 C.2   243  SER243      0.2314
     69  O         46.5670   20.6800   19.1590 O.2   243  SER243     -0.2863
     70  CB        47.0970   22.1830   22.0520 C.3   243  SER243      0.2116
     71  OG        46.3620   22.8290   23.0740 O.3   243  SER243     -0.2180
     72  N         45.1340   19.2050   17.2950 N.3   246  TYR246     -0.1241
     73  CA        44.3560   20.1220   16.4600 C.3   246  TYR246      0.1605
     74  C         45.1990   20.7340   15.3440 C.2   246  TYR246      0.2264
     75  O         44.6730   21.4520   14.5020 O.2   246  TYR246     -0.2867
     76  CB        43.6920   21.2110   17.3130 C.3   246  TYR246      0.0534
     77  CG        42.6220   20.6550   18.2320 C.ar  246  TYR246     -0.0201
     78  CD1       41.3210   20.4750   17.7790 C.ar  246  TYR246     -0.0009
     79  CD2       42.9300   20.2510   19.5340 C.ar  246  TYR246     -0.0009
     80  CE1       40.3500   19.9010   18.5870 C.ar  246  TYR246      0.0417
     81  CE2       41.9680   19.6720   20.3590 C.ar  246  TYR246      0.0417
     82  CZ        40.6760   19.5000   19.8750 C.ar  246  TYR246      0.1957
     83  OH        39.7090   18.9030   20.6620 O.3   246  TYR246     -0.2866
     84  N         40.2440   21.3130   29.7260 N.3   327  GLU327     -0.1245
     85  CA        39.9450   22.2280   28.6410 C.3   327  GLU327      0.1567
     86  C         39.5760   23.5390   29.3060 C.2   327  GLU327      0.2260
     87  O         38.8250   23.5470   30.2830 O.2   327  GLU327     -0.2867
     88  CB        38.7570   21.7380   27.8230 C.3   327  GLU327      0.0388
     89  CG        39.0830   20.5880   26.9160 C.3   327  GLU327      0.1160
     90  CD        37.9790   20.2950   25.9260 C.2   327  GLU327      0.3649
     91  OE1       36.9860   21.0550   25.8800 O.co2 327  GLU327     -0.2457
     92  OE2       38.1100   19.2950   25.1870 O.co2 327  GLU327     -0.2457
@<TRIPOS>BOND
     1    17    18    2
     2    17    16    1
     3    20    19    1
     4    75    74    2
     5    19    16    1
     6    16    15    1
     7    74    73    1
     8    15    13   am
     9    73    72    1
    10    73    76    1
    11    13    14    2
    12    13    12    1
    13    76    77    1
    14    78    77   ar
    15    78    80   ar
    16    77    79   ar
    17    12    11    1
    18    80    82   ar
    19    10     8   ar
    20    10     9   ar
    21     8     6   ar
    22    69    68    2
    23    79    81   ar
    24     4     3    2
    25    11     3   am
    26     9     7   ar
    27    82    81   ar
    28    82    83    1
    29     3     2    1
    30    68    67    1
    31     6     7   ar
    32     6     5    1
    33     5     2    1
    34    60    59    2
    35     2     1    1
    36    67    70    1
    37    67    66    1
    38    21    22    1
    39    70    71    1
    40    59    66   am
    41    59    58    1
    42    35    37   ar
    43    35    34   ar
    44    37    39   ar
    45    32    31    2
    46    29    30    1
    47    33    34    1
    48    33    30    1
    49    34    36   ar
    50    39    40    1
    51    39    38   ar
    52    22    25    1
    53    22    23    1
    54    65    64    1
    55    58    57    1
    56    58    61    1
    57    25    26    1
    58    28    27    1
    59    30    31    1
    60    36    38   ar
    61    31    41   am
    62    49    51   ar
    63    49    47   ar
    64    62    61    1
    65    62    63    1
    66    23    24    2
    67    51    50   ar
    68    26    27    1
    69    64    63    1
    70    47    46   ar
    71    41    42    1
    72    92    90   ar
    73    50    48   ar
    74    42    43    1
    75    42    45    1
    76    46    48   ar
    77    46    45    1
    78    91    90   ar
    79    90    89    1
    80    56    53    1
    81    43    52   am
    82    43    44    2
    83    52    53    1
    84    89    88    1
    85    53    54    1
    86    55    54    2
    87    88    85    1
    88    85    86    1
    89    85    84    1
    90    86    87    2
