@<TRIPOS>MOLECULE
tmp/2pb0A00.pdb
 125 118 0 0 0
SMALL
GASTEIGER

@<TRIPOS>ATOM
      1  N         76.6430   41.2490   43.4020 N.3    40  ILE40      -0.1245
      2  CA        75.3500   41.6830   43.9630 C.3    40  ILE40       0.1561
      3  C         74.4380   40.4900   44.2960 C.2    40  ILE40       0.2260
      4  O         73.3460   40.3370   43.7340 O.2    40  ILE40      -0.2867
      5  CB        74.6130   42.7810   43.1110 C.3    40  ILE40       0.0252
      6  CG1       75.6040   43.7950   42.5230 C.3    40  ILE40       0.0019
      7  CG2       73.5650   43.5050   43.9630 C.3    40  ILE40       0.0019
      8  CD1       74.9990   44.7430   41.4770 C.3    40  ILE40       0.0001
      9  N         66.1460   36.4340   33.6400 N.3    96  SER96      -0.1202
     10  CA        66.5640   37.4430   34.6040 C.3    96  SER96       0.2020
     11  C         65.4600   37.7400   35.6100 C.2    96  SER96       0.2619
     12  O         64.2970   37.3820   35.3930 O.2    96  SER96      -0.2717
     13  CB        66.9660   38.7290   33.8770 C.3    96  SER96       0.2103
     14  OG        65.8430   39.3170   33.2330 O.3    96  SER96      -0.2182
     15  N         65.8390   38.3940   36.7050 N.am   97  GLY97      -0.1942
     16  CA        64.8970   38.8340   37.7280 C.3    97  GLY97       0.2014
     17  C         63.8550   39.8000   37.1950 C.2    97  GLY97       0.2639
     18  O         62.6920   39.7430   37.5970 O.2    97  GLY97      -0.2714
     19  N         64.2780   40.6850   36.2920 N.am   98  THR98      -0.1950
     20  CA        63.3710   41.6270   35.6330 C.3    98  THR98       0.1897
     21  C         62.2750   40.8800   34.8670 C.2    98  THR98       0.2313
     22  O         61.0960   41.2220   34.9680 O.2    98  THR98      -0.2863
     23  CB        64.1260   42.5850   34.6690 C.3    98  THR98       0.1794
     24  OG1       65.1430   43.2950   35.3860 O.3    98  THR98      -0.2208
     25  CG2       63.1730   43.6010   34.0630 C.3    98  THR98       0.0378
     26  N         59.8680   39.1440   37.2520 N.3   101  ASN101     -0.1240
     27  CA        58.9730   40.1880   37.7470 C.3   101  ASN101      0.1653
     28  C         57.9610   40.6650   36.7040 C.2   101  ASN101      0.2266
     29  O         56.7960   40.8610   37.0320 O.2   101  ASN101     -0.2867
     30  CB        59.7680   41.3720   38.3080 C.3   101  ASN101      0.1155
     31  CG        60.3290   41.0980   39.6940 C.2   101  ASN101      0.2627
     32  OD1       59.8220   40.2520   40.4330 O.2   101  ASN101     -0.2716
     33  ND2       61.3800   41.8230   40.0550 N.am  101  ASN101     -0.0877
     34  N         63.1120   48.0820   44.4470 N.3   130  PHE130     -0.1227
     35  CA        63.7590   47.7960   43.1760 C.3   130  PHE130      0.1736
     36  C         63.2590   46.4600   42.6400 C.2   130  PHE130      0.2595
     37  O         63.3270   45.4430   43.3310 O.2   130  PHE130     -0.2718
     38  CB        65.2890   47.8000   43.3050 C.3   130  PHE130      0.0547
     39  CG        66.0010   47.4950   42.0130 C.ar  130  PHE130     -0.0202
     40  CD1       66.1000   48.4590   41.0140 C.ar  130  PHE130     -0.0042
     41  CD2       66.5510   46.2380   41.7860 C.ar  130  PHE130     -0.0042
     42  CE1       66.7440   48.1790   39.8100 C.ar  130  PHE130     -0.0003
     43  CE2       67.1980   45.9470   40.5850 C.ar  130  PHE130     -0.0003
     44  CZ        67.2920   46.9190   39.5970 C.ar  130  PHE130     -0.0000
     45  N         62.7500   46.4770   41.4110 N.am  131  HIS131     -0.1961
     46  CA        62.1700   45.2840   40.7920 C.3   131  HIS131      0.1787
     47  C         62.7130   45.0240   39.3880 C.2   131  HIS131      0.2621
     48  O         62.2710   44.0970   38.7080 O.2   131  HIS131     -0.2715
     49  CB        60.6400   45.3740   40.7680 C.3   131  HIS131      0.0785
     50  CG        60.0230   45.5250   42.1220 C.ar  131  HIS131      0.0821
     51  ND1       60.0900   44.5410   43.0850 N.ar  131  HIS131     -0.2267
     52  CD2       59.3290   46.5470   42.6750 C.ar  131  HIS131      0.1154
     53  CE1       59.4680   44.9530   44.1750 C.ar  131  HIS131      0.1986
     54  NE2       58.9950   46.1660   43.9520 N.ar  131  HIS131     -0.2212
     55  N         63.6830   45.8320   38.9690 N.am  132  GLY132     -0.1940
     56  CA        64.2840   45.6970   37.6450 C.3   132  GLY132      0.2014
     57  C         64.2290   46.9930   36.8610 C.2   132  GLY132      0.2638
     58  O         63.7230   48.0050   37.3530 O.2   132  GLY132     -0.2714
     59  N         64.7330   46.9590   35.6310 N.am  133  ARG133     -0.1977
     60  CA        64.8820   48.1840   34.8450 C.3   133  ARG133      0.1597
     61  C         64.1510   48.2050   33.4950 C.2   133  ARG133      0.2287
     62  O         64.3820   49.0920   32.6690 O.2   133  ARG133     -0.2864
     63  CB        66.3650   48.5610   34.7160 C.3   133  ARG133      0.0334
     64  CG        66.9020   49.2480   35.9760 C.3   133  ARG133      0.0492
     65  CD        68.4200   49.3380   35.9990 C.3   133  ARG133      0.2205
     66  NE        69.0430   48.0620   36.3550 N.pl3 133  ARG133     -0.0865
     67  CZ        69.7670   47.8470   37.4510 C.cat 133  ARG133      0.5346
     68  NH1       69.9760   48.8260   38.3230 N.pl3 133  ARG133      0.1354
     69  NH2       70.2860   46.6460   37.6750 N.pl3 133  ARG133      0.1354
     70  N         59.3460   43.5040   48.3810 N.3   182  GLU182     -0.1245
     71  CA        60.5440   42.7630   48.7580 C.3   182  GLU182      0.1567
     72  C         60.4720   42.5030   50.2620 C.2   182  GLU182      0.2260
     73  O         60.4600   43.4590   51.0480 O.2   182  GLU182     -0.2867
     74  CB        61.8050   43.5750   48.4480 C.3   182  GLU182      0.0388
     75  CG        61.9870   43.9640   46.9890 C.3   182  GLU182      0.1160
     76  CD        62.8940   45.1690   46.8320 C.2   182  GLU182      0.3649
     77  OE1       62.3620   46.2750   46.6260 O.co2 182  GLU182     -0.2457
     78  OE2       64.1310   45.0180   46.9400 O.co2 182  GLU182     -0.2457
     79  N         68.3630   46.7670   47.8480 N.3   187  GLU187     -0.1245
     80  CA        68.8750   48.0250   47.3040 C.3   187  GLU187      0.1567
     81  C         68.4740   49.2310   48.1570 C.2   187  GLU187      0.2260
     82  O         69.2360   50.1930   48.2710 O.2   187  GLU187     -0.2867
     83  CB        68.4220   48.2170   45.8510 C.3   187  GLU187      0.0388
     84  CG        68.9510   47.1630   44.8640 C.3   187  GLU187      0.1160
     85  CD        70.4710   47.1390   44.7530 C.2   187  GLU187      0.3649
     86  OE1       71.1010   48.2150   44.8480 O.co2 187  GLU187     -0.2457
     87  OE2       71.0360   46.0360   44.5600 O.co2 187  GLU187     -0.2457
     88  N         58.8260   39.7630   45.8030 N.3   215  ASP215     -0.1239
     89  CA        60.0570   39.8180   45.0210 C.3   215  ASP215      0.1674
     90  C         61.2190   39.2900   45.8650 C.2   215  ASP215      0.2266
     91  O         61.7710   40.0090   46.7020 O.2   215  ASP215     -0.2867
     92  CB        60.3290   41.2480   44.5270 C.3   215  ASP215      0.1410
     93  CG        61.5680   41.3460   43.6390 C.2   215  ASP215      0.3668
     94  OD1       62.3940   40.4100   43.6340 O.co2 215  ASP215     -0.2456
     95  OD2       61.7250   42.3730   42.9500 O.co2 215  ASP215     -0.2456
     96  N         64.0430   38.0150   44.4260 N.3   217  VAL217     -0.1231
     97  CA        65.1740   37.9380   43.5030 C.3   217  VAL217      0.1692
     98  C         66.5070   38.0650   44.2530 C.2   217  VAL217      0.2591
     99  O         67.4390   37.2980   44.0010 O.2   217  VAL217     -0.2718
    100  CB        65.0490   38.9770   42.3550 C.3   217  VAL217      0.0266
    101  CG1       66.3610   39.1220   41.5870 C.3   217  VAL217      0.0020
    102  CG2       63.9210   38.5750   41.4100 C.3   217  VAL217      0.0020
    103  N         66.5830   39.0170   45.1820 N.am  218  GLN218     -0.1979
    104  CA        67.7840   39.1890   46.0040 C.3   218  GLN218      0.1601
    105  C         67.7540   38.3640   47.2950 C.2   218  GLN218      0.2287
    106  O         68.7420   37.7040   47.6330 O.2   218  GLN218     -0.2864
    107  CB        68.0380   40.6670   46.3220 C.3   218  GLN218      0.0394
    108  CG        69.4390   40.9410   46.8850 C.3   218  GLN218      0.0908
    109  CD        69.7480   42.4190   47.0530 C.2   218  GLN218      0.2608
    110  OE1       70.5410   42.8010   47.9170 O.2   218  GLN218     -0.2717
    111  NE2       69.1280   43.2600   46.2250 N.am  218  GLN218     -0.0878
    112  N         65.6450   34.8150   41.3260 N.3   243  ALA243     -0.1231
    113  CA        66.7310   34.8790   40.3470 C.3   243  ALA243      0.1694
    114  C         68.0650   34.9550   41.0870 C.2   243  ALA243      0.2591
    115  O         68.2080   34.3650   42.1560 O.2   243  ALA243     -0.2718
    116  CB        66.5530   36.0740   39.4140 C.3   243  ALA243      0.0304
    117  N         69.0300   35.6730   40.5110 N.am  244  LYS244     -0.1980
    118  CA        70.3600   35.8790   41.1090 C.3   244  LYS244      0.1596
    119  C         71.0010   34.5870   41.6340 C.2   244  LYS244      0.2287
    120  O         71.6440   33.8710   40.8700 O.2   244  LYS244     -0.2864
    121  CB        70.3250   37.0010   42.1560 C.3   244  LYS244      0.0298
    122  CG        70.1250   38.3740   41.5180 C.3   244  LYS244      0.0038
    123  CD        70.0530   39.5100   42.5120 C.3   244  LYS244      0.0206
    124  CE        70.1150   40.8460   41.7680 C.3   244  LYS244      0.1093
    125  NZ        69.1670   41.8540   42.3150 N.3   244  LYS244     -0.1314
@<TRIPOS>BOND
     1    62    61    2
     2    14    13    1
     3    61    60    1
     4     9    10    1
     5    13    10    1
     6    25    23    1
     7    10    11    1
     8    23    24    1
     9    23    20    1
    10    63    60    1
    11    63    64    1
    12    60    59    1
    13    21    22    2
    14    21    20    1
    15    12    11    2
    16    11    15   am
    17    59    57   am
    18    20    19    1
    19    64    65    1
    20    65    66    1
    21    19    17   am
    22    66    67    2
    23    28    29    2
    24    28    27    1
    25    15    16    1
    26    57    58    2
    27    57    56    1
    28    17    18    2
    29    17    16    1
    30    26    27    1
    31    67    69    1
    32    67    68    1
    33    56    55    1
    34    27    30    1
    35    30    31    1
    36    48    47    2
    37    55    47   am
    38    47    46    1
    39   116   113    1
    40    44    42   ar
    41    44    43   ar
    42    31    33   am
    43    31    32    2
    44    42    40   ar
    45   113   114    1
    46   113   112    1
    47   117   114   am
    48   117   118    1
    49    43    41   ar
    50    49    46    1
    51    49    50    1
    52    46    45    1
    53   120   119    2
    54    40    39   ar
    55   114   115    2
    56   118   119    1
    57   118   121    1
    58   102   100    1
    59    45    36   am
    60     8     6    1
    61   122   121    1
    62   122   123    1
    63   101   100    1
    64   124   125    1
    65   124   123    1
    66    41    39   ar
    67    39    38    1
    68    50    52   ar
    69    50    51   ar
    70   100    97    1
    71     6     5    1
    72    36    35    1
    73    36    37    2
    74    52    54   ar
    75    95    93   ar
    76    51    53   ar
    77     5     2    1
    78     5     7    1
    79    35    38    1
    80    35    34    1
    81     1     2    1
    82    97    98    1
    83    97    96    1
    84    94    93   ar
    85    93    92    1
    86     4     3    2
    87    54    53   ar
    88     2     3    1
    89    99    98    2
    90    98   103   am
    91    92    89    1
    92    87    85   ar
    93    85    86   ar
    94    85    84    1
    95    84    83    1
    96    89    88    1
    97    89    90    1
    98   103   104    1
    99    83    80    1
   100    90    91    2
   101   104   107    1
   102   104   105    1
   103   111   109   am
   104   107   108    1
   105    77    76   ar
   106    76    78   ar
   107    76    75    1
   108   108   109    1
   109    75    74    1
   110   109   110    2
   111   105   106    2
   112    80    79    1
   113    80    81    1
   114    81    82    2
   115    70    71    1
   116    74    71    1
   117    71    72    1
   118    72    73    2
