@<TRIPOS>MOLECULE
tmp/2pb1A01.pdb
 138 131 0 0 0
SMALL
GASTEIGER

@<TRIPOS>ATOM
      1  N         27.6770   41.6650   52.1880 N.3   138  PHE138     -0.1241
      2  CA        29.0910   41.3960   51.9950 C.3   138  PHE138      0.1605
      3  C         29.2610   40.5610   50.7370 C.2   138  PHE138      0.2264
      4  O         28.4210   39.7340   50.3950 O.2   138  PHE138     -0.2867
      5  CB        29.6980   40.6040   53.1640 C.3   138  PHE138      0.0534
      6  CG        29.4670   41.2050   54.5260 C.ar  138  PHE138     -0.0203
      7  CD1       29.3230   42.5750   54.7130 C.ar  138  PHE138     -0.0042
      8  CD2       29.5010   40.3850   55.6470 C.ar  138  PHE138     -0.0042
      9  CE1       29.1250   43.1010   55.9810 C.ar  138  PHE138     -0.0003
     10  CE2       29.3420   40.9160   56.9270 C.ar  138  PHE138     -0.0003
     11  CZ        29.1540   42.2770   57.0860 C.ar  138  PHE138     -0.0000
     12  N         31.0260   38.0060   50.4390 N.3   140  ASN140     -0.1240
     13  CA        31.0760   36.6080   50.8800 C.3   140  ASN140      0.1653
     14  C         29.6950   35.9420   51.1740 C.2   140  ASN140      0.2266
     15  O         29.6130   34.7190   51.3960 O.2   140  ASN140     -0.2867
     16  CB        32.0540   36.4930   52.0590 C.3   140  ASN140      0.1155
     17  CG        31.6300   37.3070   53.2320 C.2   140  ASN140      0.2627
     18  OD1       30.5960   37.0250   53.8490 O.2   140  ASN140     -0.2716
     19  ND2       32.3960   38.3540   53.5430 N.am  140  ASN140     -0.0877
     20  N         26.9380   35.5220   59.9130 N.3   186  GLU186     -0.1245
     21  CA        27.0390   37.0040   59.9480 C.3   186  GLU186      0.1567
     22  C         25.8150   37.7950   59.4200 C.2   186  GLU186      0.2260
     23  O         25.9560   38.7210   58.5890 O.2   186  GLU186     -0.2867
     24  CB        28.3420   37.4670   59.2660 C.3   186  GLU186      0.0388
     25  CG        29.6150   37.0080   59.9920 C.3   186  GLU186      0.1160
     26  CD        30.9200   37.5960   59.4770 C.2   186  GLU186      0.3649
     27  OE1       30.9330   38.1870   58.3800 O.co2 186  GLU186     -0.2457
     28  OE2       31.9580   37.4960   60.1890 O.co2 186  GLU186     -0.2457
     29  N         23.6500   40.8360   59.4530 N.3   188  LEU188     -0.1245
     30  CA        24.1140   42.1690   59.8550 C.3   188  LEU188      0.1561
     31  C         23.0870   42.8240   60.7860 C.2   188  LEU188      0.2260
     32  O         22.2260   43.5770   60.3590 O.2   188  LEU188     -0.2867
     33  CB        24.4110   43.0160   58.5990 C.3   188  LEU188      0.0270
     34  CG        25.1620   44.3190   58.8150 C.3   188  LEU188      0.0019
     35  CD1       26.4210   44.1550   59.6210 C.3   188  LEU188      0.0001
     36  CD2       25.4740   44.9830   57.4380 C.3   188  LEU188      0.0001
     37  N         22.6340   45.3450   62.8880 N.3   190  PRO190     -0.2116
     38  CA        22.2940   46.7720   62.7860 C.3   190  PRO190      0.1372
     39  C         21.3140   47.1850   61.6920 C.2   190  PRO190      0.2244
     40  O         20.6070   48.1640   61.8730 O.2   190  PRO190     -0.2868
     41  CB        23.6450   47.4240   62.5150 C.3   190  PRO190      0.0268
     42  CG        24.6060   46.5360   63.2290 C.3   190  PRO190      0.0207
     43  CD        24.1000   45.1550   63.0030 C.3   190  PRO190      0.0892
     44  N         26.6330   40.3410   65.4120 N.3   223  PHE223     -0.1241
     45  CA        27.4170   41.5300   65.7630 C.3   223  PHE223      0.1605
     46  C         26.8300   42.2570   66.9790 C.2   223  PHE223      0.2264
     47  O         27.0620   43.4470   67.1680 O.2   223  PHE223     -0.2867
     48  CB        27.5950   42.4780   64.5600 C.3   223  PHE223      0.0534
     49  CG        28.1550   41.8060   63.3390 C.ar  223  PHE223     -0.0203
     50  CD1       29.5030   41.5060   63.2550 C.ar  223  PHE223     -0.0042
     51  CD2       27.3330   41.4560   62.2910 C.ar  223  PHE223     -0.0042
     52  CE1       30.0230   40.8850   62.1450 C.ar  223  PHE223     -0.0003
     53  CE2       27.8390   40.8340   61.1850 C.ar  223  PHE223     -0.0003
     54  CZ        29.1850   40.5550   61.0970 C.ar  223  PHE223     -0.0000
     55  N         32.7050   36.1310   66.0280 N.3   247  HIS247     -0.1241
     56  CA        33.7900   36.4200   65.1100 C.3   247  HIS247      0.1621
     57  C         34.5340   37.6650   65.6130 C.2   247  HIS247      0.2264
     58  O         33.9590   38.5220   66.2550 O.2   247  HIS247     -0.2867
     59  CB        33.2230   36.6650   63.7210 C.3   247  HIS247      0.0745
     60  CG        32.5300   35.4780   63.1340 C.ar  247  HIS247      0.0817
     61  ND1       31.8800   35.5230   61.9180 N.ar  247  HIS247     -0.2268
     62  CD2       32.3610   34.2200   63.6020 C.ar  247  HIS247      0.1154
     63  CE1       31.3670   34.3350   61.6580 C.ar  247  HIS247      0.1986
     64  NE2       31.6560   33.5220   62.6530 N.ar  247  HIS247     -0.2212
     65  N         37.7570   40.4740   64.7120 N.3   249  TYR249     -0.1241
     66  CA        38.8490   41.1280   63.9670 C.3   249  TYR249      0.1605
     67  C         39.1450   42.5240   64.5350 C.2   249  TYR249      0.2264
     68  O         38.3380   43.0970   65.2900 O.2   249  TYR249     -0.2867
     69  CB        38.4790   41.2820   62.4850 C.3   249  TYR249      0.0534
     70  CG        38.2310   39.9780   61.7450 C.ar  249  TYR249     -0.0201
     71  CD1       39.2650   39.0630   61.4850 C.ar  249  TYR249     -0.0009
     72  CD2       36.9480   39.6770   61.2810 C.ar  249  TYR249     -0.0009
     73  CE1       38.9950   37.8640   60.7950 C.ar  249  TYR249      0.0417
     74  CE2       36.6810   38.5160   60.5810 C.ar  249  TYR249      0.0417
     75  CZ        37.6940   37.6180   60.3320 C.ar  249  TYR249      0.1957
     76  OH        37.3570   36.4880   59.6280 O.3   249  TYR249     -0.2866
     77  N         38.7650   46.4230   60.5440 N.3   252  PHE252     -0.1227
     78  CA        37.7210   46.9640   59.6660 C.3   252  PHE252      0.1736
     79  C         37.2150   48.3610   60.0500 C.2   252  PHE252      0.2596
     80  O         36.1010   48.7470   59.6930 O.2   252  PHE252     -0.2718
     81  CB        36.5830   45.9720   59.4610 C.3   252  PHE252      0.0547
     82  CG        37.0080   44.7340   58.7450 C.ar  252  PHE252     -0.0202
     83  CD1       37.3550   44.7790   57.4060 C.ar  252  PHE252     -0.0042
     84  CD2       37.0880   43.5110   59.4180 C.ar  252  PHE252     -0.0042
     85  CE1       37.7450   43.6150   56.7200 C.ar  252  PHE252     -0.0003
     86  CE2       37.4740   42.3580   58.7400 C.ar  252  PHE252     -0.0003
     87  CZ        37.8230   42.4170   57.3940 C.ar  252  PHE252     -0.0000
     88  N         38.0480   49.1070   60.7500 N.am  253  SER253     -0.1952
     89  CA        37.8190   50.5150   60.9990 C.3   253  SER253      0.1924
     90  C         39.1600   51.2030   61.2280 C.2   253  SER253      0.2314
     91  O         40.1390   50.5740   61.6380 O.2   253  SER253     -0.2863
     92  CB        36.9190   50.7260   62.2260 C.3   253  SER253      0.2116
     93  OG        37.6240   50.4340   63.4210 O.3   253  SER253     -0.2180
     94  N         40.4310   50.9100   64.9580 N.3   256  GLU256     -0.1245
     95  CA        41.0350   49.6150   65.2700 C.3   256  GLU256      0.1567
     96  C         42.4250   49.4930   64.6610 C.2   256  GLU256      0.2260
     97  O         43.3370   48.9960   65.3070 O.2   256  GLU256     -0.2867
     98  CB        40.1400   48.4850   64.7760 C.3   256  GLU256      0.0388
     99  CG        38.8550   48.3180   65.5660 C.3   256  GLU256      0.1160
    100  CD        37.8540   47.4300   64.8550 C.2   256  GLU256      0.3649
    101  OE1       37.2040   47.9050   63.8990 O.co2 256  GLU256     -0.2457
    102  OE2       37.7090   46.2550   65.2570 O.co2 256  GLU256     -0.2457
    103  N         35.5800   32.5450   63.5400 N.3   286  GLU286     -0.1245
    104  CA        36.2570   33.3480   62.5400 C.3   286  GLU286      0.1567
    105  C         37.1270   34.4020   63.2140 C.2   286  GLU286      0.2260
    106  O         36.6680   35.1800   64.0700 O.2   286  GLU286     -0.2867
    107  CB        35.2320   34.0130   61.6170 C.3   286  GLU286      0.0388
    108  CG        35.5700   33.9260   60.2350 C.3   286  GLU286      0.1160
    109  CD        34.5510   34.5700   59.3110 C.2   286  GLU286      0.3649
    110  OE1       33.3310   34.2630   59.4140 O.co2 286  GLU286     -0.2457
    111  OE2       35.0060   35.3770   58.4640 O.co2 286  GLU286     -0.2457
    112  N         40.2270   42.8190   49.9860 N.3   298  LEU298     -0.1231
    113  CA        39.6060   42.4330   51.2870 C.3   298  LEU298      0.1693
    114  C         38.2680   43.1810   51.5790 C.2   298  LEU298      0.2592
    115  O         37.2940   42.6020   52.0730 O.2   298  LEU298     -0.2718
    116  CB        40.6010   42.6980   52.4350 C.3   298  LEU298      0.0284
    117  CG        40.1360   42.2870   53.8230 C.3   298  LEU298      0.0019
    118  CD1       39.8790   40.7790   53.8990 C.3   298  LEU298      0.0001
    119  CD2       41.1770   42.8120   54.8910 C.3   298  LEU298      0.0001
    120  N         38.2270   44.4710   51.2530 N.am  299  ASN299     -0.1974
    121  CA        37.0520   45.2890   51.4840 C.3   299  ASN299      0.1688
    122  C         36.0510   45.1930   50.3480 C.2   299  ASN299      0.2292
    123  O         34.9320   45.6670   50.4650 O.2   299  ASN299     -0.2864
    124  CB        37.4390   46.7240   51.7260 C.3   299  ASN299      0.1181
    125  CG        38.2460   46.8810   52.9940 C.2   299  ASN299      0.2629
    126  OD1       37.8710   46.3360   54.0460 O.2   299  ASN299     -0.2716
    127  ND2       39.3360   47.6330   52.9160 N.am  299  ASN299     -0.0877
    128  N         41.9030   50.9580   54.0520 N.3   306  ARG306     -0.1245
    129  CA        41.9220   51.9800   55.0870 C.3   306  ARG306      0.1563
    130  C         43.3470   52.2110   55.5990 C.2   306  ARG306      0.2260
    131  O         43.6920   53.3300   55.9750 O.2   306  ARG306     -0.2867
    132  CB        41.0700   51.5800   56.2960 C.3   306  ARG306      0.0307
    133  CG        39.5840   51.4150   56.0570 C.3   306  ARG306      0.0489
    134  CD        38.8800   50.8580   57.3010 C.3   306  ARG306      0.2205
    135  NE        37.5330   50.4200   56.9220 N.pl3 306  ARG306     -0.0865
    136  CZ        37.2610   49.2330   56.3920 C.cat 306  ARG306      0.5346
    137  NH1       38.2040   48.3180   56.2320 N.pl3 306  ARG306      0.1354
    138  NH2       36.0230   48.9400   56.0580 N.pl3 306  ARG306      0.1354
@<TRIPOS>BOND
     1   112   113    1
     2   122   123    2
     3   122   121    1
     4     4     3    2
     5    12    13    1
     6     3     2    1
     7    13    14    1
     8    13    16    1
     9    14    15    2
    10   120   121    1
    11   120   114   am
    12   113   114    1
    13   113   116    1
    14   121   124    1
    15   114   115    2
    16   124   125    1
    17     2     1    1
    18     2     5    1
    19    16    17    1
    20   116   117    1
    21   127   125   am
    22   125   126    2
    23     5     6    1
    24    17    19   am
    25    17    18    2
    26   117   118    1
    27   117   119    1
    28   128   129    1
    29     6     7   ar
    30     6     8   ar
    31     7     9   ar
    32   129   130    1
    33   129   132    1
    34   130   131    2
    35     8    10   ar
    36     9    11   ar
    37   133   132    1
    38   133   134    1
    39   138   136    1
    40   137   136    1
    41   136   135    2
    42    85    87   ar
    43    85    83   ar
    44   135   134    1
    45    10    11   ar
    46    87    86   ar
    47    83    82   ar
    48    36    34    1
    49    27    26   ar
    50   111   109   ar
    51    23    22    2
    52    33    34    1
    53    33    30    1
    54    86    84   ar
    55    82    84   ar
    56    82    81    1
    57    34    35    1
    58    24    21    1
    59    24    25    1
    60   109   110   ar
    61   109   108    1
    62    22    21    1
    63    29    30    1
    64    81    78    1
    65    26    25    1
    66    26    28   ar
    67    76    75    1
    68    78    79    1
    69    78    77    1
    70    80    79    2
    71    30    31    1
    72    20    21    1
    73    79    88   am
    74   108   107    1
    75    75    74   ar
    76    75    73   ar
    77    32    31    2
    78    74    72   ar
    79    88    89    1
    80    73    71   ar
    81    89    90    1
    82    89    92    1
    83    54    53   ar
    84    54    52   ar
    85    53    51   ar
    86    90    91    2
    87    72    70   ar
    88    71    70   ar
    89   107   104    1
    90    63    61   ar
    91    63    64   ar
    92    39    40    2
    93    39    38    1
    94    70    69    1
    95    61    60   ar
    96    52    50   ar
    97    92    93    1
    98    51    49   ar
    99    69    66    1
   100    41    38    1
   101    41    42    1
   102   104   105    1
   103   104   103    1
   104    64    62   ar
   105    38    37    1
   106    37    43    1
   107    43    42    1
   108    60    62   ar
   109    60    59    1
   110   105   106    2
   111    50    49   ar
   112    49    48    1
   113    59    56    1
   114   101   100   ar
   115    66    67    1
   116    66    65    1
   117    67    68    2
   118    48    45    1
   119    96    95    1
   120    96    97    2
   121    98    95    1
   122    98    99    1
   123   100   102   ar
   124   100    99    1
   125    94    95    1
   126    56    57    1
   127    56    55    1
   128    44    45    1
   129    57    58    2
   130    45    46    1
   131    46    47    2
