@<TRIPOS>MOLECULE
tmp/2pb1A00.pdb
 124 121 0 0 0
SMALL
GASTEIGER

@<TRIPOS>ATOM
      1  N         35.3480   34.2100   47.0240 N.3    21  GLU21      -0.1245
      2  CA        35.6880   35.5110   47.5820 C.3    21  GLU21       0.1567
      3  C         36.8730   36.1040   46.8430 C.2    21  GLU21       0.2260
      4  O         37.9400   35.5040   46.8240 O.2    21  GLU21      -0.2867
      5  CB        35.9660   35.4240   49.0810 C.3    21  GLU21       0.0388
      6  CG        34.8060   34.8120   49.8480 C.3    21  GLU21       0.1160
      7  CD        34.9880   34.9220   51.3590 C.2    21  GLU21       0.3649
      8  OE1       35.5650   35.9410   51.7950 O.co2  21  GLU21      -0.2457
      9  OE2       34.5760   33.9610   52.0730 O.co2  21  GLU21      -0.2457
     10  N         39.2020   38.3560   47.3190 N.3    23  TYR23      -0.1241
     11  CA        40.5030   38.5150   47.9660 C.3    23  TYR23       0.1605
     12  C         41.2240   37.1750   48.1990 C.2    23  TYR23       0.2264
     13  O         42.4660   37.1420   48.2700 O.2    23  TYR23      -0.2867
     14  CB        40.4090   39.3500   49.2480 C.3    23  TYR23       0.0534
     15  CG        40.0490   38.5700   50.5010 C.ar   23  TYR23      -0.0201
     16  CD1       38.7330   38.3770   50.8700 C.ar   23  TYR23      -0.0009
     17  CD2       41.0440   38.0440   51.3270 C.ar   23  TYR23      -0.0009
     18  CE1       38.4080   37.6640   52.0640 C.ar   23  TYR23       0.0417
     19  CE2       40.7350   37.3560   52.5030 C.ar   23  TYR23       0.0417
     20  CZ        39.4080   37.1570   52.8580 C.ar   23  TYR23       0.1957
     21  OH        39.1240   36.4560   54.0300 O.3    23  TYR23      -0.2866
     22  N         26.3610   30.1560   54.5040 N.3   129  HIS129     -0.1241
     23  CA        27.1510   31.3550   54.4380 C.3   129  HIS129      0.1621
     24  C         26.4560   32.4820   53.6700 C.2   129  HIS129      0.2264
     25  O         26.7920   33.6440   53.8380 O.2   129  HIS129     -0.2867
     26  CB        28.5030   31.0440   53.7940 C.3   129  HIS129      0.0745
     27  CG        29.6520   31.8190   54.3690 C.ar  129  HIS129      0.0817
     28  ND1       30.1770   31.5660   55.6230 N.ar  129  HIS129     -0.2268
     29  CD2       30.4230   32.7970   53.8270 C.ar  129  HIS129      0.1154
     30  CE1       31.2050   32.3730   55.8290 C.ar  129  HIS129      0.1986
     31  NE2       31.3670   33.1360   54.7590 N.ar  129  HIS129     -0.2212
     32  N         31.0260   38.0060   50.4390 N.3   140  ASN140     -0.1240
     33  CA        31.0760   36.6080   50.8800 C.3   140  ASN140      0.1653
     34  C         29.6950   35.9420   51.1740 C.2   140  ASN140      0.2266
     35  O         29.6130   34.7190   51.3960 O.2   140  ASN140     -0.2867
     36  CB        32.0540   36.4930   52.0590 C.3   140  ASN140      0.1155
     37  CG        31.6300   37.3070   53.2320 C.2   140  ASN140      0.2627
     38  OD1       30.5960   37.0250   53.8490 O.2   140  ASN140     -0.2716
     39  ND2       32.3960   38.3540   53.5430 N.am  140  ASN140     -0.0877
     40  N         25.5680   32.6020   58.4970 N.3   185  ASN185     -0.1225
     41  CA        26.7860   33.3500   58.7900 C.3   185  ASN185      0.1785
     42  C         26.5390   34.8610   58.8260 C.2   185  ASN185      0.2597
     43  O         26.0160   35.4170   57.8600 O.2   185  ASN185     -0.2718
     44  CB        27.8630   33.0710   57.7310 C.3   185  ASN185      0.1169
     45  CG        29.1500   33.7410   58.0630 C.2   185  ASN185      0.2627
     46  OD1       29.7830   33.3990   59.0590 O.2   185  ASN185     -0.2716
     47  ND2       29.5510   34.7080   57.2530 N.am  185  ASN185     -0.0877
     48  N         26.9380   35.5220   59.9130 N.am  186  GLU186     -0.1979
     49  CA        27.0390   37.0040   59.9480 C.3   186  GLU186      0.1602
     50  C         25.8150   37.7950   59.4200 C.2   186  GLU186      0.2287
     51  O         25.9560   38.7210   58.5890 O.2   186  GLU186     -0.2864
     52  CB        28.3420   37.4670   59.2660 C.3   186  GLU186      0.0415
     53  CG        29.6150   37.0080   59.9920 C.3   186  GLU186      0.1163
     54  CD        30.9200   37.5960   59.4770 C.2   186  GLU186      0.3649
     55  OE1       30.9330   38.1870   58.3800 O.co2 186  GLU186     -0.2457
     56  OE2       31.9580   37.4960   60.1890 O.co2 186  GLU186     -0.2457
     57  N         37.7570   40.4740   64.7120 N.3   249  TYR249     -0.1241
     58  CA        38.8490   41.1280   63.9670 C.3   249  TYR249      0.1605
     59  C         39.1450   42.5240   64.5350 C.2   249  TYR249      0.2264
     60  O         38.3380   43.0970   65.2900 O.2   249  TYR249     -0.2867
     61  CB        38.4790   41.2820   62.4850 C.3   249  TYR249      0.0534
     62  CG        38.2310   39.9780   61.7450 C.ar  249  TYR249     -0.0201
     63  CD1       39.2650   39.0630   61.4850 C.ar  249  TYR249     -0.0009
     64  CD2       36.9480   39.6770   61.2810 C.ar  249  TYR249     -0.0009
     65  CE1       38.9950   37.8640   60.7950 C.ar  249  TYR249      0.0417
     66  CE2       36.6810   38.5160   60.5810 C.ar  249  TYR249      0.0417
     67  CZ        37.6940   37.6180   60.3320 C.ar  249  TYR249      0.1957
     68  OH        37.3570   36.4880   59.6280 O.3   249  TYR249     -0.2866
     69  N         38.7650   46.4230   60.5440 N.3   252  PHE252     -0.1241
     70  CA        37.7210   46.9640   59.6660 C.3   252  PHE252      0.1605
     71  C         37.2150   48.3610   60.0500 C.2   252  PHE252      0.2264
     72  O         36.1010   48.7470   59.6930 O.2   252  PHE252     -0.2867
     73  CB        36.5830   45.9720   59.4610 C.3   252  PHE252      0.0534
     74  CG        37.0080   44.7340   58.7450 C.ar  252  PHE252     -0.0203
     75  CD1       37.3550   44.7790   57.4060 C.ar  252  PHE252     -0.0042
     76  CD2       37.0880   43.5110   59.4180 C.ar  252  PHE252     -0.0042
     77  CE1       37.7450   43.6150   56.7200 C.ar  252  PHE252     -0.0003
     78  CE2       37.4740   42.3580   58.7400 C.ar  252  PHE252     -0.0003
     79  CZ        37.8230   42.4170   57.3940 C.ar  252  PHE252     -0.0000
     80  N         35.5800   32.5450   63.5400 N.3   286  GLU286     -0.1245
     81  CA        36.2570   33.3480   62.5400 C.3   286  GLU286      0.1567
     82  C         37.1270   34.4020   63.2140 C.2   286  GLU286      0.2260
     83  O         36.6680   35.1800   64.0700 O.2   286  GLU286     -0.2867
     84  CB        35.2320   34.0130   61.6170 C.3   286  GLU286      0.0388
     85  CG        35.5700   33.9260   60.2350 C.3   286  GLU286      0.1160
     86  CD        34.5510   34.5700   59.3110 C.2   286  GLU286      0.3649
     87  OE1       33.3310   34.2630   59.4140 O.co2 286  GLU286     -0.2457
     88  OE2       35.0060   35.3770   58.4640 O.co2 286  GLU286     -0.2457
     89  N         40.2270   42.8190   49.9860 N.3   298  LEU298     -0.1245
     90  CA        39.6060   42.4330   51.2870 C.3   298  LEU298      0.1561
     91  C         38.2680   43.1810   51.5790 C.2   298  LEU298      0.2260
     92  O         37.2940   42.6020   52.0730 O.2   298  LEU298     -0.2867
     93  CB        40.6010   42.6980   52.4350 C.3   298  LEU298      0.0270
     94  CG        40.1360   42.2870   53.8230 C.3   298  LEU298      0.0019
     95  CD1       39.8790   40.7790   53.8990 C.3   298  LEU298      0.0001
     96  CD2       41.1770   42.8120   54.8910 C.3   298  LEU298      0.0001
     97  N         40.3420   31.8400   60.0870 N.3   357  TRP357     -0.1241
     98  CA        39.9580   32.1560   58.6920 C.3   357  TRP357      0.1605
     99  C         41.2090   32.6290   57.9330 C.2   357  TRP357      0.2264
    100  O         41.6830   33.7470   58.1790 O.2   357  TRP357     -0.2867
    101  CB        38.8740   33.2590   58.6280 C.3   357  TRP357      0.0550
    102  CG        38.3830   33.3900   57.2150 C.ar  357  TRP357      0.0003
    103  CD1       39.0160   34.0290   56.1960 C.ar  357  TRP357      0.0946
    104  CD2       37.2230   32.7770   56.6430 C.ar  357  TRP357      0.0152
    105  NE1       38.3080   33.8790   55.0260 N.ar  357  TRP357     -0.2442
    106  CE2       37.2030   33.1200   55.2640 C.ar  357  TRP357      0.0810
    107  CE3       36.1670   32.0060   57.1630 C.ar  357  TRP357      0.0012
    108  CZ2       36.1770   32.7040   54.3960 C.ar  357  TRP357      0.0191
    109  CZ3       35.1700   31.5880   56.3190 C.ar  357  TRP357      0.0001
    110  CH2       35.1670   31.9590   54.9340 C.ar  357  TRP357      0.0015
    111  N         45.8180   35.8580   56.1170 N.3   367  TRP367     -0.1241
    112  CA        44.5690   35.1080   56.0740 C.3   367  TRP367      0.1605
    113  C         44.7700   33.6100   55.6910 C.2   367  TRP367      0.2264
    114  O         43.7930   32.8990   55.3690 O.2   367  TRP367     -0.2867
    115  CB        43.6480   35.7900   55.0670 C.3   367  TRP367      0.0550
    116  CG        43.3580   37.2350   55.4140 C.ar  367  TRP367      0.0003
    117  CD1       44.0530   38.3460   55.0160 C.ar  367  TRP367      0.0946
    118  CD2       42.3350   37.7060   56.3010 C.ar  367  TRP367      0.0152
    119  NE1       43.5020   39.4730   55.5730 N.ar  367  TRP367     -0.2442
    120  CE2       42.4480   39.1070   56.3670 C.ar  367  TRP367      0.0810
    121  CE3       41.3280   37.0770   57.0300 C.ar  367  TRP367      0.0012
    122  CZ2       41.6020   39.8780   57.1320 C.ar  367  TRP367      0.0191
    123  CZ3       40.4880   37.8480   57.7940 C.ar  367  TRP367      0.0001
    124  CH2       40.6310   39.2310   57.8510 C.ar  367  TRP367      0.0015
@<TRIPOS>BOND
     1     4     3    2
     2     3     2    1
     3     1     2    1
     4    10    11    1
     5     2     5    1
     6    11    12    1
     7    11    14    1
     8    12    13    2
     9     5     6    1
    10    14    15    1
    11     6     7    1
    12    89    90    1
    13    32    33    1
    14    15    16   ar
    15    15    17   ar
    16    16    18   ar
    17    33    34    1
    18    33    36    1
    19    34    35    2
    20    90    91    1
    21    90    93    1
    22    17    19   ar
    23     7     8   ar
    24     7     9   ar
    25    91    92    2
    26    36    37    1
    27    18    20   ar
    28    93    94    1
    29    19    20   ar
    30    20    21    1
    31    37    39   am
    32    37    38    2
    33    24    25    2
    34    24    23    1
    35    26    27    1
    36    26    23    1
    37    94    95    1
    38    94    96    1
    39    29    27   ar
    40    29    31   ar
    41    27    28   ar
    42   108   110   ar
    43   108   106   ar
    44    23    22    1
    45    31    30   ar
    46   110   109   ar
    47   117   116   ar
    48   117   119   ar
    49   105   106   ar
    50   105   103   ar
    51   115   116    1
    52   115   112    1
    53   106   104   ar
    54   114   113    2
    55   116   118   ar
    56   119   120   ar
    57    28    30   ar
    58   113   112    1
    59   112   111    1
    60   103   102   ar
    61   118   120   ar
    62   118   121   ar
    63   109   107   ar
    64   120   122   ar
    65   104   107   ar
    66   104   102   ar
    67    77    79   ar
    68    77    75   ar
    69   121   123   ar
    70   122   124   ar
    71   102   101    1
    72    47    45   am
    73    79    78   ar
    74    75    74   ar
    75    44    45    1
    76    44    41    1
    77   123   124   ar
    78    43    42    2
    79    99   100    2
    80    99    98    1
    81    45    46    2
    82    55    54   ar
    83    88    86   ar
    84    40    41    1
    85    51    50    2
    86   101    98    1
    87    98    97    1
    88    78    76   ar
    89    74    76   ar
    90    74    73    1
    91    41    42    1
    92    42    48   am
    93    52    49    1
    94    52    53    1
    95    86    87   ar
    96    86    85    1
    97    50    49    1
    98    73    70    1
    99    54    53    1
   100    54    56   ar
   101    68    67    1
   102    70    71    1
   103    70    69    1
   104    72    71    2
   105    48    49    1
   106    85    84    1
   107    67    66   ar
   108    67    65   ar
   109    66    64   ar
   110    65    63   ar
   111    64    62   ar
   112    63    62   ar
   113    84    81    1
   114    62    61    1
   115    61    58    1
   116    81    82    1
   117    81    80    1
   118    82    83    2
   119    58    59    1
   120    58    57    1
   121    59    60    2
