@<TRIPOS>MOLECULE
tmp/2pb8A00.pdb
 162 160 0 0 0
SMALL
GASTEIGER

@<TRIPOS>ATOM
      1  N         10.8060   16.3860   -5.9590 N.3     2  LEU2       -0.1231
      2  CA         9.4270   16.7940   -5.7330 C.3     2  LEU2        0.1693
      3  C          8.6270   15.6750   -5.0260 C.2     2  LEU2        0.2591
      4  O          7.6060   15.9410   -4.3710 O.2     2  LEU2       -0.2718
      5  CB         8.7660   17.2420   -7.0250 C.3     2  LEU2        0.0284
      6  CG         8.6480   18.7660   -7.1880 C.3     2  LEU2        0.0019
      7  CD1        9.5920   19.4860   -6.2470 C.3     2  LEU2        0.0001
      8  CD2        8.8980   19.1720   -8.6360 C.3     2  LEU2        0.0001
      9  N          9.1130   14.4370   -5.1690 N.am    3  LEU3       -0.1980
     10  CA         8.4710   13.2870   -4.5330 C.3     3  LEU3        0.1596
     11  C          8.6230   13.3660   -3.0270 C.2     3  LEU3        0.2287
     12  O          7.6480   13.2290   -2.3160 O.2     3  LEU3       -0.2864
     13  CB         9.0960   11.9650   -5.0050 C.3     3  LEU3        0.0297
     14  CG         8.6200   11.4770   -6.3670 C.3     3  LEU3        0.0022
     15  CD1        9.1510   10.0600   -6.6270 C.3     3  LEU3        0.0001
     16  CD2        7.0850   11.5250   -6.4510 C.3     3  LEU3        0.0001
     17  N          9.4910   16.0730   -1.4250 N.3     5  PHE5       -0.1227
     18  CA         9.0260   17.3820   -0.9650 C.3     5  PHE5        0.1736
     19  C          7.4930   17.3540   -0.7430 C.2     5  PHE5        0.2596
     20  O          7.0020   17.8460    0.2570 O.2     5  PHE5       -0.2718
     21  CB         9.4270   18.5120   -1.9490 C.3     5  PHE5        0.0547
     22  CG         9.1240   19.9280   -1.4340 C.ar    5  PHE5       -0.0202
     23  CD1        9.2330   20.2390   -0.0930 C.ar    5  PHE5       -0.0042
     24  CD2        8.7690   20.9380   -2.2990 C.ar    5  PHE5       -0.0042
     25  CE1        8.9250   21.5150    0.3860 C.ar    5  PHE5       -0.0003
     26  CE2        8.5010   22.2180   -1.8390 C.ar    5  PHE5       -0.0003
     27  CZ         8.5850   22.5060   -0.4610 C.ar    5  PHE5       -0.0000
     28  N          6.7660   16.7910   -1.7090 N.am    6  GLY6       -0.1957
     29  CA         5.3250   16.5790   -1.5910 C.3     6  GLY6        0.1869
     30  C          4.8870   15.7900   -0.3560 C.2     6  GLY6        0.2309
     31  O          3.9130   16.1520    0.3210 O.2     6  GLY6       -0.2863
     32  N          5.4580   17.9900    2.8930 N.3     9  ILE9       -0.1245
     33  CA         4.3850   18.9550    2.9610 C.3     9  ILE9        0.1561
     34  C          3.0810   18.3020    3.4480 C.2     9  ILE9        0.2260
     35  O          2.4650   18.7870    4.3850 O.2     9  ILE9       -0.2867
     36  CB         4.2030   19.5990    1.6210 C.3     9  ILE9        0.0252
     37  CG1        5.4260   20.4680    1.2210 C.3     9  ILE9        0.0019
     38  CG2        2.8860   20.4530    1.5950 C.3     9  ILE9        0.0019
     39  CD1        5.2350   21.0630   -0.2250 C.3     9  ILE9        0.0001
     40  N          0.3890   18.8240   -1.7970 N.3    17  ALA17      -0.1231
     41  CA         1.2290   19.8220   -2.4470 C.3    17  ALA17       0.1694
     42  C          0.5760   20.3830   -3.6850 C.2    17  ALA17       0.2591
     43  O          0.5340   21.5970   -3.8740 O.2    17  ALA17      -0.2718
     44  CB         2.5770   19.2260   -2.7950 C.3    17  ALA17       0.0304
     45  N          0.1230   19.4950   -4.5680 N.am   18  ILE18      -0.1980
     46  CA        -0.6750   19.9020   -5.7120 C.3    18  ILE18       0.1595
     47  C         -2.0330   19.4500   -5.2070 C.2    18  ILE18       0.2287
     48  O         -2.1770   18.2650   -4.9090 O.2    18  ILE18      -0.2864
     49  CB        -0.3340   19.0080   -6.9280 C.3    18  ILE18       0.0276
     50  CG1        1.1250   19.1380   -7.3470 C.3    18  ILE18       0.0022
     51  CG2       -1.3030   19.2870   -8.0960 C.3    18  ILE18       0.0022
     52  CD1        1.5780   17.9900   -8.2230 C.3    18  ILE18       0.0001
     53  N         -0.3330   23.9810   -2.8750 N.3    21  TYR21      -0.1227
     54  CA         0.8750   24.7920   -2.8950 C.3    21  TYR21       0.1736
     55  C          1.5450   24.8760   -4.2770 C.2    21  TYR21       0.2596
     56  O          2.6090   25.4640   -4.3980 O.2    21  TYR21      -0.2718
     57  CB         1.8930   24.2920   -1.8570 C.3    21  TYR21       0.0548
     58  CG         1.4690   24.4410   -0.3980 C.ar   21  TYR21      -0.0200
     59  CD1        1.6040   25.6610    0.2810 C.ar   21  TYR21      -0.0009
     60  CD2        0.9450   23.3640    0.2900 C.ar   21  TYR21      -0.0009
     61  CE1        1.2110   25.8020    1.6300 C.ar   21  TYR21       0.0417
     62  CE2        0.5500   23.4810    1.6380 C.ar   21  TYR21       0.0417
     63  CZ         0.7000   24.7110    2.2870 C.ar   21  TYR21       0.1957
     64  OH         0.3160   24.8200    3.5780 O.3    21  TYR21      -0.2866
     65  N          0.9270   24.3200   -5.3150 N.am   22  SER22      -0.1952
     66  CA         1.5380   24.3620   -6.6450 C.3    22  SER22       0.1924
     67  C          1.1430   25.6050   -7.4560 C.2    22  SER22       0.2314
     68  O          1.7790   25.9050   -8.4380 O.2    22  SER22      -0.2863
     69  CB         1.1750   23.0940   -7.4310 C.3    22  SER22       0.2116
     70  OG        -0.2500   22.9690   -7.4730 O.3    22  SER22      -0.2180
     71  N          4.8240   32.8500   -5.5730 N.3    27  TYR27      -0.1227
     72  CA         6.0740   32.0540   -5.6640 C.3    27  TYR27       0.1736
     73  C          5.8890   30.5030   -5.5590 C.2    27  TYR27       0.2596
     74  O          6.7290   29.7600   -6.0790 O.2    27  TYR27      -0.2718
     75  CB         7.1090   32.5780   -4.6580 C.3    27  TYR27       0.0548
     76  CG         7.7700   33.8460   -5.1550 C.ar   27  TYR27      -0.0200
     77  CD1        7.3690   35.1090   -4.6990 C.ar   27  TYR27      -0.0009
     78  CD2        8.7640   33.8160   -6.1150 C.ar   27  TYR27      -0.0009
     79  CE1        7.9410   36.2780   -5.1750 C.ar   27  TYR27       0.0417
     80  CE2        9.3420   34.9850   -6.6000 C.ar   27  TYR27       0.0417
     81  CZ         8.9210   36.2030   -6.1450 C.ar   27  TYR27       0.1957
     82  OH         9.4890   37.3420   -6.6560 O.3    27  TYR27      -0.2866
     83  N          4.8250   30.0050   -4.8890 N.am   28  CYS28      -0.1956
     84  CA         4.6080   28.5720   -4.8240 C.3    28  CYS28       0.1843
     85  C          4.3310   28.0760   -6.2470 C.2    28  CYS28       0.2626
     86  O          3.2940   28.4020   -6.8120 O.2    28  CYS28      -0.2714
     87  CB         3.4560   28.2330   -3.8640 C.3    28  CYS28       0.0997
     88  SG         3.6980   28.8210   -2.1570 S.3    28  CYS28      -0.0797
     89  N          5.2590   27.3410   -6.7840 N.am   29  GLY29      -0.1940
     90  CA         5.1360   26.7970   -8.0890 C.3    29  GLY29       0.2014
     91  C          6.0660   27.4190   -9.0790 C.2    29  GLY29       0.2638
     92  O          7.0040   28.1530   -8.7860 O.2    29  GLY29      -0.2714
     93  N          5.7210   27.0460  -10.2840 N.am   30  TRP30      -0.1973
     94  CA         6.3730   27.5280  -11.4640 C.3    30  TRP30       0.1640
     95  C          6.9640   28.9190  -11.2480 C.2    30  TRP30       0.2290
     96  O          8.1480   29.1460  -11.5260 O.2    30  TRP30      -0.2864
     97  CB         5.3300   27.4990  -12.6070 C.3    30  TRP30       0.0576
     98  CG         5.4650   28.3840  -13.8250 C.ar   30  TRP30       0.0006
     99  CD1        6.1310   28.0870  -15.0040 C.ar   30  TRP30       0.0946
    100  CD2        4.9080   29.6960  -14.0130 C.ar   30  TRP30       0.0152
    101  NE1        6.0340   29.1440  -15.8840 N.ar   30  TRP30      -0.2442
    102  CE2        5.2930   30.1430  -15.3040 C.ar   30  TRP30       0.0810
    103  CE3        4.1390   30.5550  -13.2070 C.ar   30  TRP30       0.0012
    104  CZ2        4.9200   31.3970  -15.8090 C.ar   30  TRP30       0.0191
    105  CZ3        3.7750   31.8000  -13.7110 C.ar   30  TRP30       0.0001
    106  CH2        4.1700   32.2070  -14.9960 C.ar   30  TRP30       0.0015
    107  N          7.5510   30.1150    0.0720 N.3    44  CYS44      -0.1235
    108  CA         7.9150   29.6800   -1.2710 C.3    44  CYS44       0.1677
    109  C          9.0570   30.5170   -1.8590 C.2    44  CYS44       0.2270
    110  O          9.9480   29.9600   -2.4820 O.2    44  CYS44      -0.2867
    111  CB         6.6810   29.7090   -2.1810 C.3    44  CYS44       0.0956
    112  SG         5.5090   28.4510   -1.6260 S.3    44  CYS44      -0.0801
    113  N         12.2130   29.4550   -0.2190 N.3    47  HIS47      -0.1226
    114  CA        12.5000   28.1240   -0.7720 C.3    47  HIS47       0.1752
    115  C         13.1060   28.2250   -2.1680 C.2    47  HIS47       0.2596
    116  O         14.0760   27.4960   -2.4870 O.2    47  HIS47      -0.2718
    117  CB        11.2030   27.2650   -0.8160 C.3    47  HIS47       0.0759
    118  CG        11.4260   25.8270   -1.2160 C.ar   47  HIS47       0.0818
    119  ND1       11.0920   25.3370   -2.4640 N.ar   47  HIS47      -0.2268
    120  CD2       12.0190   24.7960   -0.5580 C.ar   47  HIS47       0.1154
    121  CE1       11.3750   24.0410   -2.5230 C.ar   47  HIS47       0.1986
    122  NE2       11.9440   23.6880   -1.3820 N.ar   47  HIS47      -0.2212
    123  N         12.5400   29.0870   -3.0240 N.am   48  ASP48      -0.1974
    124  CA        13.1340   29.3330   -4.3290 C.3    48  ASP48       0.1709
    125  C         14.5640   29.8850   -4.2050 C.2    48  ASP48       0.2293
    126  O         15.4340   29.4910   -4.9850 O.2    48  ASP48      -0.2864
    127  CB        12.3360   30.3400   -5.1290 C.3    48  ASP48       0.1436
    128  CG        11.0850   29.7410   -5.7830 C.2    48  ASP48       0.3671
    129  OD1       10.7550   28.5550   -5.5510 O.co2  48  ASP48      -0.2456
    130  OD2       10.3590   30.4360   -6.5170 O.co2  48  ASP48      -0.2456
    131  N         17.0290   26.9810   -3.2430 N.3    51  TYR51      -0.1241
    132  CA        17.3750   26.2410   -4.4490 C.3    51  TYR51       0.1605
    133  C         18.3610   27.0710   -5.2880 C.2    51  TYR51       0.2264
    134  O         19.3190   26.5460   -5.8170 O.2    51  TYR51      -0.2867
    135  CB        16.0840   25.9800   -5.2930 C.3    51  TYR51       0.0534
    136  CG        15.2760   24.7760   -4.8510 C.ar   51  TYR51      -0.0201
    137  CD1       15.6130   24.0630   -3.6950 C.ar   51  TYR51      -0.0009
    138  CD2       14.1830   24.3330   -5.6030 C.ar   51  TYR51      -0.0009
    139  CE1       14.8490   22.9490   -3.2830 C.ar   51  TYR51       0.0417
    140  CE2       13.4300   23.2090   -5.2060 C.ar   51  TYR51       0.0417
    141  CZ        13.7700   22.5380   -4.0600 C.ar   51  TYR51       0.1957
    142  OH        13.0210   21.4330   -3.7020 O.3    51  TYR51      -0.2866
    143  N         14.6070   18.8290   -8.4650 N.3    60  LYS60      -0.1245
    144  CA        13.3200   18.2980   -8.8660 C.3    60  LYS60       0.1561
    145  C         13.4450   16.8840   -9.1110 C.2    60  LYS60       0.2260
    146  O         12.4620   16.1300   -9.2090 O.2    60  LYS60      -0.2867
    147  CB        12.7710   18.9710  -10.1440 C.3    60  LYS60       0.0271
    148  CG        12.7190   20.5140  -10.0710 C.3    60  LYS60       0.0035
    149  CD        11.6360   21.1360  -10.9530 C.3    60  LYS60       0.0206
    150  CE        11.5340   22.6450  -10.7420 C.3    60  LYS60       0.1093
    151  NZ        10.7620   23.3110  -11.8270 N.3    60  LYS60      -0.1314
    152  N          5.6860   26.3400    6.0360 N.3    96  PHE96      -0.1241
    153  CA         4.2770   26.0960    5.7300 C.3    96  PHE96       0.1605
    154  C          3.4400   25.7770    6.9870 C.2    96  PHE96       0.2264
    155  O          2.3460   26.3280    7.1840 O.2    96  PHE96      -0.2867
    156  CB         4.1030   24.9340    4.7180 C.3    96  PHE96       0.0534
    157  CG         4.5390   25.2740    3.3280 C.ar   96  PHE96      -0.0203
    158  CD1        4.5070   26.5860    2.8690 C.ar   96  PHE96      -0.0042
    159  CD2        5.0170   24.2820    2.4880 C.ar   96  PHE96      -0.0042
    160  CE1        4.9170   26.8870    1.5710 C.ar   96  PHE96      -0.0003
    161  CE2        5.4160   24.5850    1.2170 C.ar   96  PHE96      -0.0003
    162  CZ         5.3840   25.8690    0.7600 C.ar   96  PHE96      -0.0000
@<TRIPOS>BOND
     1   101   102   ar
     2   101    99   ar
     3   104   102   ar
     4   104   106   ar
     5   102   100   ar
     6    99    98   ar
     7   106   105   ar
     8   100    98   ar
     9   100   103   ar
    10    98    97    1
    11   105   103   ar
    12    97    94    1
    13   151   150    1
    14    96    95    2
    15    94    95    1
    16    94    93    1
    17   149   150    1
    18   149   148    1
    19    93    91   am
    20   147   148    1
    21   147   144    1
    22   146   145    2
    23   145   144    1
    24    91    92    2
    25    91    90    1
    26   144   143    1
    27     8     6    1
    28    68    67    2
    29    52    50    1
    30    51    49    1
    31    90    89    1
    32    70    69    1
    33    67    66    1
    34    69    66    1
    35    50    49    1
    36     6     5    1
    37     6     7    1
    38     5     2    1
    39    49    46    1
    40    86    85    2
    41    89    85   am
    42    82    81    1
    43    66    65    1
    44    15    14    1
    45    80    81   ar
    46    80    78   ar
    47   130   128   ar
    48    16    14    1
    49    14    13    1
    50    85    84    1
    51    81    79   ar
    52    78    76   ar
    53    74    73    2
    54     1     2    1
    55   134   133    2
    56   128   129   ar
    57   128   127    1
    58     2     3    1
    59    46    47    1
    60    46    45    1
    61    72    71    1
    62    72    73    1
    63    72    75    1
    64   138   140   ar
    65   138   136   ar
    66    73    83   am
    67    65    55   am
    68   135   136    1
    69   135   132    1
    70   133   132    1
    71    47    48    2
    72   140   141   ar
    73    79    77   ar
    74     9     3   am
    75     9    10    1
    76    76    77   ar
    77    76    75    1
    78   127   124    1
    79     3     4    2
    80    13    10    1
    81   126   125    2
    82    83    84    1
    83   136   137   ar
    84    84    87    1
    85    45    42   am
    86    10    11    1
    87   132   131    1
    88    56    55    2
    89   124   125    1
    90   124   123    1
    91    55    54    1
    92   141   142    1
    93   141   139   ar
    94    43    42    2
    95    87    88    1
    96   137   139   ar
    97    42    41    1
    98    11    12    2
    99   123   115   am
   100    54    53    1
   101    54    57    1
   102    44    41    1
   103   121   119   ar
   104   121   122   ar
   105   116   115    2
   106   110   109    2
   107   119   118   ar
   108    41    40    1
   109    24    26   ar
   110    24    22   ar
   111   111   112    1
   112   111   108    1
   113   115   114    1
   114    88   112    1
   115    21    22    1
   116    21    18    1
   117   109   108    1
   118    57    58    1
   119    26    27   ar
   120    28    29    1
   121    28    19   am
   122    29    30    1
   123    22    23   ar
   124    17    18    1
   125   122   120   ar
   126   108   107    1
   127   118   117    1
   128   118   120   ar
   129    18    19    1
   130   117   114    1
   131   114   113    1
   132    19    20    2
   133    27    25   ar
   134    58    59   ar
   135    58    60   ar
   136    30    31    2
   137    39    37    1
   138    23    25   ar
   139    59    61   ar
   140    60    62   ar
   141   162   161   ar
   142   162   160   ar
   143   161   159   ar
   144    37    36    1
   145   160   158   ar
   146    38    36    1
   147    36    33    1
   148    61    63   ar
   149    62    63   ar
   150    63    64    1
   151   159   157   ar
   152   158   157   ar
   153    32    33    1
   154    33    34    1
   155   157   156    1
   156    34    35    2
   157   156   153    1
   158   153   152    1
   159   153   154    1
   160   154   155    2
