@<TRIPOS>MOLECULE
tmp/2pbfB00.pdb
 222 216 0 0 0
SMALL
GASTEIGER

@<TRIPOS>ATOM
      1  N         34.6670    1.2410  -21.2020 N.3    51  VAL51      -0.1231
      2  CA        33.5210    0.9940  -22.0710 C.3    51  VAL51       0.1692
      3  C         32.9800   -0.4460  -22.0810 C.2    51  VAL51       0.2593
      4  O         33.7010   -1.4240  -21.8840 O.2    51  VAL51      -0.2718
      5  CB        33.7250    1.5810  -23.5220 C.3    51  VAL51       0.0266
      6  CG1       34.1340    3.0680  -23.4660 C.3    51  VAL51       0.0020
      7  CG2       34.7330    0.7550  -24.3210 C.3    51  VAL51       0.0020
      8  N         31.6760   -0.5280  -22.3000 N.am   52  THR52      -0.1939
      9  CA        30.9460   -1.7840  -22.3630 C.3    52  THR52       0.2028
     10  C         30.3640   -1.9460  -23.7560 C.2    52  THR52       0.2642
     11  O         30.0760   -0.9550  -24.4380 O.2    52  THR52      -0.2714
     12  CB        29.7790   -1.8150  -21.3410 C.3    52  THR52       0.1808
     13  OG1       28.9240   -0.6820  -21.5710 O.3    52  THR52      -0.2208
     14  CG2       30.2970   -1.7780  -19.8940 C.3    52  THR52       0.0379
     15  N         30.2400   -3.1960  -24.1920 N.am   53  ILE53      -0.1963
     16  CA        29.3390   -3.5470  -25.2730 C.3    53  ILE53       0.1727
     17  C         27.9620   -3.3630  -24.6480 C.2    53  ILE53       0.2616
     18  O         27.7320   -3.7900  -23.5220 O.2    53  ILE53      -0.2715
     19  CB        29.5460   -5.0130  -25.7350 C.3    53  ILE53       0.0290
     20  CG1       28.5300   -5.4240  -26.8170 C.3    53  ILE53       0.0022
     21  CG2       29.4310   -5.9960  -24.5670 C.3    53  ILE53       0.0023
     22  CD1       28.9080   -6.7240  -27.5460 C.3    53  ILE53       0.0001
     23  N         27.0620   -2.6930  -25.3420 N.am   54  SER54      -0.1950
     24  CA        25.7460   -2.4380  -24.7680 C.3    54  SER54       0.1924
     25  C         24.9490   -3.7280  -24.4940 C.2    54  SER54       0.2314
     26  O         25.2660   -4.8170  -25.0270 O.2    54  SER54      -0.2863
     27  CB        24.9530   -1.4520  -25.6250 C.3    54  SER54       0.2116
     28  OG        25.7340   -0.3080  -25.9390 O.3    54  SER54      -0.2180
     29  N         20.8400   -2.5940  -28.0600 N.3    59  HIS59      -0.1241
     30  CA        21.0710   -2.8380  -29.4870 C.3    59  HIS59       0.1621
     31  C         19.7350   -3.0520  -30.1950 C.2    59  HIS59       0.2264
     32  O         19.4890   -2.4910  -31.2910 O.2    59  HIS59      -0.2867
     33  CB        21.9470   -4.0760  -29.7390 C.3    59  HIS59       0.0745
     34  CG        23.3870   -3.9280  -29.3330 C.ar   59  HIS59       0.0817
     35  ND1       24.1260   -4.9910  -28.8650 N.ar   59  HIS59      -0.2268
     36  CD2       24.2270   -2.8590  -29.3350 C.ar   59  HIS59       0.1154
     37  CE1       25.3500   -4.5830  -28.5710 C.ar   59  HIS59       0.1986
     38  NE2       25.4430   -3.2970  -28.8650 N.ar   59  HIS59      -0.2212
     39  N         27.8560    4.4770  -37.5220 N.3    78  ASP78      -0.1225
     40  CA        27.7310    4.0260  -36.1380 C.3    78  ASP78       0.1805
     41  C         28.7620    4.8060  -35.3630 C.2    78  ASP78       0.2598
     42  O         29.9600    4.5150  -35.4500 O.2    78  ASP78      -0.2718
     43  CB        27.9730    2.5040  -36.0170 C.3    78  ASP78       0.1424
     44  CG        27.7390    1.9570  -34.6040 C.2    78  ASP78       0.3668
     45  OD1       27.0880    2.6210  -33.7780 O.co2  78  ASP78      -0.2456
     46  OD2       28.2100    0.8290  -34.3140 O.co2  78  ASP78      -0.2456
     47  N         28.2960    5.8180  -34.6420 N.am   79  VAL79      -0.1966
     48  CA        29.1700    6.6880  -33.8710 C.3    79  VAL79       0.1727
     49  C         29.4110    6.0460  -32.5060 C.2    79  VAL79       0.2617
     50  O         28.4910    5.9450  -31.6820 O.2    79  VAL79      -0.2715
     51  CB        28.5200    8.0810  -33.6780 C.3    79  VAL79       0.0290
     52  CG1       29.4390    9.0110  -32.8240 C.3    79  VAL79       0.0023
     53  CG2       28.1700    8.6980  -35.0460 C.3    79  VAL79       0.0023
     54  N         30.6490    5.6220  -32.2810 N.am   80  GLY80      -0.1940
     55  CA        31.0320    4.9350  -31.0440 C.3    80  GLY80       0.2014
     56  C         30.8370    3.4660  -31.2760 C.2    80  GLY80       0.2640
     57  O         30.0710    2.7980  -30.5590 O.2    80  GLY80      -0.2714
     58  N         31.5170    2.9470  -32.3000 N.am   81  SER81      -0.1935
     59  CA        31.2100    1.6140  -32.7660 C.3    81  SER81       0.2055
     60  C         31.5720    0.5210  -31.7400 C.2    81  SER81       0.2644
     61  O         30.9700   -0.5620  -31.7630 O.2    81  SER81      -0.2714
     62  CB        31.8090    1.3520  -34.1640 C.3    81  SER81       0.2130
     63  OG        33.1790    1.6910  -34.2240 O.3    81  SER81      -0.2179
     64  N         32.5120    0.8120  -30.8360 N.am   82  GLY82      -0.1939
     65  CA        32.8050   -0.0610  -29.6900 C.3    82  GLY82       0.2014
     66  C         33.1720   -1.4850  -30.0420 C.2    82  GLY82       0.2639
     67  O         34.1970   -1.7130  -30.6810 O.2    82  GLY82      -0.2714
     68  N         32.3380   -2.4570  -29.6430 N.am   83  SER83      -0.1949
     69  CA        32.5970   -3.8670  -29.9830 C.3    83  SER83       0.1924
     70  C         32.5020   -4.1400  -31.4870 C.2    83  SER83       0.2314
     71  O         32.9870   -5.1820  -31.9540 O.2    83  SER83      -0.2863
     72  CB        31.6030   -4.7920  -29.2720 C.3    83  SER83       0.2116
     73  OG        30.2830   -4.5040  -29.7200 O.3    83  SER83      -0.2180
     74  N         29.5270   -4.4850  -32.7320 N.3    85  TYR85      -0.1227
     75  CA        28.3180   -5.3180  -32.8190 C.3    85  TYR85       0.1736
     76  C         27.2410   -4.6480  -33.6950 C.2    85  TYR85       0.2595
     77  O         26.7490   -5.2480  -34.6610 O.2    85  TYR85      -0.2718
     78  CB        27.7320   -5.6930  -31.4260 C.3    85  TYR85       0.0548
     79  CG        26.5600   -6.6450  -31.6110 C.ar   85  TYR85      -0.0200
     80  CD1       26.7750   -8.0350  -31.7080 C.ar   85  TYR85      -0.0009
     81  CD2       25.2550   -6.1580  -31.8000 C.ar   85  TYR85      -0.0009
     82  CE1       25.7200   -8.9180  -31.9390 C.ar   85  TYR85       0.0417
     83  CE2       24.1920   -7.0390  -32.0170 C.ar   85  TYR85       0.0417
     84  CZ        24.4260   -8.4020  -32.0910 C.ar   85  TYR85       0.1957
     85  OH        23.3660   -9.2560  -32.3320 O.3    85  TYR85      -0.2866
     86  N         26.8920   -3.4060  -33.3670 N.am   86  LEU86      -0.1980
     87  CA        25.8210   -2.7290  -34.0930 C.3    86  LEU86       0.1596
     88  C         26.2040   -2.4060  -35.5290 C.2    86  LEU86       0.2287
     89  O         25.3370   -2.3950  -36.4080 O.2    86  LEU86      -0.2864
     90  CB        25.2770   -1.4900  -33.3550 C.3    86  LEU86       0.0297
     91  CG        23.7850   -1.2820  -33.7030 C.3    86  LEU86       0.0022
     92  CD1       22.8640   -2.2870  -32.9670 C.3    86  LEU86       0.0001
     93  CD2       23.3900    0.0930  -33.3670 C.3    86  LEU86       0.0001
     94  N         32.7430    4.7250  -36.4130 N.3   107  LEU107     -0.1231
     95  CA        33.7310    5.6180  -35.8000 C.3   107  LEU107      0.1693
     96  C         33.9060    5.2670  -34.3250 C.2   107  LEU107      0.2592
     97  O         32.9330    5.2510  -33.5530 O.2   107  LEU107     -0.2718
     98  CB        33.2690    7.0770  -35.8980 C.3   107  LEU107      0.0284
     99  CG        33.7480    7.9720  -37.0490 C.3   107  LEU107      0.0019
    100  CD1       33.6320    7.3160  -38.4340 C.3   107  LEU107      0.0001
    101  CD2       33.0100    9.3030  -37.0290 C.3   107  LEU107      0.0001
    102  N         35.1540    5.0200  -33.9410 N.am  108  GLU108     -0.1966
    103  CA        35.5050    4.6910  -32.5760 C.3   108  GLU108      0.1733
    104  C         36.6920    5.5560  -32.1020 C.2   108  GLU108      0.2616
    105  O         37.7570    5.5910  -32.7410 O.2   108  GLU108     -0.2715
    106  CB        35.7940    3.2020  -32.4570 C.3   108  GLU108      0.0429
    107  CG        36.3420    2.7530  -31.1160 C.3   108  GLU108      0.1163
    108  CD        35.5160    3.2150  -29.9180 C.2   108  GLU108      0.3649
    109  OE1       34.2930    3.0160  -29.8770 O.co2 108  GLU108     -0.2457
    110  OE2       36.1050    3.7800  -28.9950 O.co2 108  GLU108     -0.2457
    111  N         36.5040    6.2600  -30.9870 N.am  109  ARG109     -0.1963
    112  CA        37.5360    7.1990  -30.5120 C.3   109  ARG109      0.1729
    113  C         38.7370    6.4990  -29.9160 C.2   109  ARG109      0.2616
    114  O         39.8560    7.0290  -29.9630 O.2   109  ARG109     -0.2715
    115  CB        36.9670    8.2430  -29.5450 C.3   109  ARG109      0.0348
    116  CG        37.0310    7.9040  -28.0610 C.3   109  ARG109      0.0492
    117  CD        36.4810    9.0700  -27.2020 C.3   109  ARG109      0.2205
    118  NE        37.5260    9.9590  -26.6870 N.pl3 109  ARG109     -0.0865
    119  CZ        38.4060    9.6280  -25.7320 C.cat 109  ARG109      0.5346
    120  NH1       39.2980   10.5170  -25.3190 N.pl3 109  ARG109      0.1354
    121  NH2       38.3900    8.4200  -25.1680 N.pl3 109  ARG109      0.1354
    122  N         38.5120    5.2960  -29.3930 N.am  110  VAL110     -0.1977
    123  CA        39.5510    4.5320  -28.6910 C.3   110  VAL110      0.1596
    124  C         40.1610    3.4530  -29.5770 C.2   110  VAL110      0.2287
    125  O         39.4530    2.5930  -30.1150 O.2   110  VAL110     -0.2864
    126  CB        39.0180    3.9160  -27.3480 C.3   110  VAL110      0.0276
    127  CG1       40.1470    3.3450  -26.5360 C.3   110  VAL110      0.0022
    128  CG2       38.2700    4.9520  -26.5320 C.3   110  VAL110      0.0022
    129  N         39.6830   -0.3000  -28.9190 N.3   113  LEU113     -0.1245
    130  CA        38.3480   -0.7540  -29.2620 C.3   113  LEU113      0.1561
    131  C         38.1660   -0.9400  -30.7670 C.2   113  LEU113      0.2260
    132  O         37.5330   -1.9160  -31.1810 O.2   113  LEU113     -0.2867
    133  CB        37.2850    0.1400  -28.6400 C.3   113  LEU113      0.0270
    134  CG        37.1990   -0.2520  -27.1630 C.3   113  LEU113      0.0019
    135  CD1       36.8680    0.9490  -26.3350 C.3   113  LEU113      0.0001
    136  CD2       36.1900   -1.3860  -27.0090 C.3   113  LEU113      0.0001
    137  N         38.5370    7.3470  -34.7780 N.3   139  LYS139     -0.1231
    138  CA        38.1190    8.7440  -34.9680 C.3   139  LYS139      0.1693
    139  C         37.1310    9.2400  -33.9130 C.2   139  LYS139      0.2592
    140  O         36.1760    8.5510  -33.5520 O.2   139  LYS139     -0.2718
    141  CB        37.4760    8.9140  -36.3580 C.3   139  LYS139      0.0285
    142  CG        37.1270   10.3540  -36.7620 C.3   139  LYS139      0.0035
    143  CD        38.4090   11.0800  -37.1120 C.3   139  LYS139      0.0206
    144  CE        38.1800   12.5270  -37.4920 C.3   139  LYS139      0.1093
    145  NZ        39.4340   13.0390  -38.1370 N.3   139  LYS139     -0.1314
    146  N         37.3530   10.4710  -33.4550 N.am  140  ASN140     -0.1960
    147  CA        36.4120   11.1660  -32.6020 C.3   140  ASN140      0.1819
    148  C         35.4800   12.0110  -33.4610 C.2   140  ASN140      0.2621
    149  O         35.9260   12.8630  -34.2290 O.2   140  ASN140     -0.2715
    150  CB        37.1510   12.0600  -31.5920 C.3   140  ASN140      0.1195
    151  CG        36.2510   12.5830  -30.4890 C.2   140  ASN140      0.2630
    152  OD1       35.1400   13.0540  -30.7220 O.2   140  ASN140     -0.2716
    153  ND2       36.7440   12.5140  -29.2730 N.am  140  ASN140     -0.0877
    154  N         34.1820   11.7740  -33.3130 N.am  141  ILE141     -0.1963
    155  CA        33.1610   12.4940  -34.0540 C.3   141  ILE141      0.1727
    156  C         33.3230   14.0170  -33.8940 C.2   141  ILE141      0.2616
    157  O         32.9250   14.7870  -34.7690 O.2   141  ILE141     -0.2715
    158  CB        31.7470   12.0340  -33.6020 C.3   141  ILE141      0.0290
    159  CG1       30.6510   12.6440  -34.4820 C.3   141  ILE141      0.0022
    160  CG2       31.5030   12.3600  -32.1130 C.3   141  ILE141      0.0023
    161  CD1       30.7480   12.2940  -35.9730 C.3   141  ILE141      0.0001
    162  N         33.9030   14.4310  -32.7680 N.am  142  TYR142     -0.1974
    163  CA        34.0700   15.8460  -32.4320 C.3   142  TYR142      0.1639
    164  C         35.3020   16.4660  -33.0910 C.2   142  TYR142      0.2290
    165  O         35.4710   17.6790  -33.0630 O.2   142  TYR142     -0.2864
    166  CB        34.1590   16.0350  -30.9120 C.3   142  TYR142      0.0560
    167  CG        32.8410   15.9430  -30.1730 C.ar  142  TYR142     -0.0198
    168  CD1       31.8670   16.9190  -30.3330 C.ar  142  TYR142     -0.0009
    169  CD2       32.5830   14.8890  -29.2950 C.ar  142  TYR142     -0.0009
    170  CE1       30.6540   16.8430  -29.6610 C.ar  142  TYR142      0.0417
    171  CE2       31.3870   14.8050  -28.6030 C.ar  142  TYR142      0.0417
    172  CZ        30.4260   15.7890  -28.7880 C.ar  142  TYR142      0.1957
    173  OH        29.2380   15.7270  -28.1080 O.3   142  TYR142     -0.2866
    174  N         23.6970    6.2160  -35.9130 N.3   159  HIS159     -0.1241
    175  CA        23.5220    5.6780  -34.5910 C.3   159  HIS159      0.1621
    176  C         24.6520    6.1590  -33.7200 C.2   159  HIS159      0.2264
    177  O         25.8220    6.0890  -34.0960 O.2   159  HIS159     -0.2867
    178  CB        23.4240    4.1540  -34.6170 C.3   159  HIS159      0.0745
    179  CG        23.4590    3.5390  -33.2590 C.ar  159  HIS159      0.0817
    180  ND1       24.6290    3.0960  -32.6750 N.ar  159  HIS159     -0.2268
    181  CD2       22.4730    3.3050  -32.3610 C.ar  159  HIS159      0.1154
    182  CE1       24.3650    2.6270  -31.4710 C.ar  159  HIS159      0.1986
    183  NE2       23.0640    2.7310  -31.2610 N.ar  159  HIS159     -0.2212
    184  N         26.1540    5.6120  -30.0200 N.3   161  GLY161     -0.1210
    185  CA        26.0470    4.6760  -28.9140 C.3   161  GLY161      0.1956
    186  C         26.6690    5.1550  -27.6080 C.2   161  GLY161      0.2611
    187  O         27.1070    4.3360  -26.8060 O.2   161  GLY161     -0.2717
    188  N         26.7140    6.4850  -27.4260 N.am  162  ALA162     -0.1979
    189  CA        27.2830    7.1230  -26.2470 C.3   162  ALA162      0.1597
    190  C         26.5440    8.4410  -26.0690 C.2   162  ALA162      0.2287
    191  O         26.1300    9.0650  -27.0540 O.2   162  ALA162     -0.2864
    192  CB        28.7730    7.3610  -26.4260 C.3   162  ALA162      0.0319
    193  N         27.2730    5.0440  -21.7940 N.3   213  VAL213     -0.1231
    194  CA        28.5390    5.6880  -21.4710 C.3   213  VAL213      0.1692
    195  C         28.5760    7.0200  -22.2310 C.2   213  VAL213      0.2593
    196  O         27.8570    7.1870  -23.2150 O.2   213  VAL213     -0.2718
    197  CB        29.7680    4.8000  -21.7930 C.3   213  VAL213      0.0266
    198  CG1       29.5420    3.3520  -21.3420 C.3   213  VAL213      0.0020
    199  CG2       30.1520    4.8570  -23.2660 C.3   213  VAL213      0.0020
    200  N         29.3870    7.9690  -21.7710 N.am  214  SER214     -0.1938
    201  CA        29.3650    9.3030  -22.3620 C.3   214  SER214      0.2055
    202  C         30.1600    9.4200  -23.6750 C.2   214  SER214      0.2643
    203  O         31.1970    8.7570  -23.8660 O.2   214  SER214     -0.2714
    204  CB        29.8610   10.3430  -21.3550 C.3   214  SER214      0.2130
    205  OG        31.2300   10.1010  -21.0830 O.3   214  SER214     -0.2179
    206  N         29.6560   10.2760  -24.5600 N.am  215  LEU215     -0.1963
    207  CA        30.3760   10.6790  -25.7640 C.3   215  LEU215      0.1728
    208  C         31.4110   11.7590  -25.4030 C.2   215  LEU215      0.2616
    209  O         31.0580   12.9230  -25.2820 O.2   215  LEU215     -0.2715
    210  CB        29.4020   11.2210  -26.8140 C.3   215  LEU215      0.0311
    211  CG        29.8940   11.3410  -28.2580 C.3   215  LEU215      0.0022
    212  CD1       30.0540    9.9650  -28.8830 C.3   215  LEU215      0.0001
    213  CD2       28.9100   12.1920  -29.0510 C.3   215  LEU215      0.0001
    214  N         32.6660   11.3390  -25.2260 N.am  216  LYS216     -0.1977
    215  CA        33.7980   12.1970  -24.8630 C.3   216  LYS216      0.1596
    216  C         34.2460   13.1410  -25.9910 C.2   216  LYS216      0.2287
    217  O         34.5200   12.7110  -27.1110 O.2   216  LYS216     -0.2864
    218  CB        34.9910   11.3330  -24.4420 C.3   216  LYS216      0.0298
    219  CG        34.8070   10.4770  -23.1990 C.3   216  LYS216      0.0038
    220  CD        36.1430    9.8080  -22.8380 C.3   216  LYS216      0.0206
    221  CE        36.0640    8.8900  -21.6100 C.3   216  LYS216      0.1093
    222  NZ        35.7280    9.6070  -20.3370 N.3   216  LYS216     -0.1314
@<TRIPOS>BOND
     1   100    99    1
     2   145   144    1
     3    39    40    1
     4   144   143    1
     5   143   142    1
     6    99   101    1
     7    99    98    1
     8   142   141    1
     9    94    95    1
    10    89    88    2
    11   141   138    1
    12    40    43    1
    13    40    41    1
    14    43    44    1
    15   161   159    1
    16   174   175    1
    17    98    95    1
    18    95    96    1
    19    88    87    1
    20    42    41    2
    21    41    47   am
    22    53    51    1
    23   138   137    1
    24   138   139    1
    25   157   156    2
    26    77    76    2
    27    47    48    1
    28   178   175    1
    29   178   179    1
    30    44    46   ar
    31    44    45   ar
    32   175   176    1
    33   159   158    1
    34    96   102   am
    35    96    97    2
    36   149   148    2
    37    63    62    1
    38    62    59    1
    39   177   176    2
    40    87    86    1
    41    87    90    1
    42   155   156    1
    43   155   158    1
    44   155   154    1
    45   102   103    1
    46   139   140    2
    47   139   146   am
    48   156   162   am
    49    48    51    1
    50    48    49    1
    51    91    93    1
    52    91    90    1
    53    91    92    1
    54    76    86   am
    55    76    75    1
    56    51    52    1
    57   158   160    1
    58   148   154   am
    59   148   147    1
    60   146   147    1
    61   179   180   ar
    62   179   181   ar
    63   164   165    2
    64   164   163    1
    65    75    74    1
    66    75    78    1
    67   162   163    1
    68    59    58    1
    69    59    60    1
    70   105   104    2
    71   180   182   ar
    72   147   150    1
    73   103   106    1
    74   103   104    1
    75    49    54   am
    76    49    50    2
    77   106   107    1
    78   163   166    1
    79   181   183   ar
    80    85    84    1
    81    58    56   am
    82    54    55    1
    83   104   111   am
    84    84    83   ar
    85    84    82   ar
    86    83    81   ar
    87    71    70    2
    88    82    80   ar
    89    81    79   ar
    90    61    60    2
    91    60    64   am
    92    80    79   ar
    93    79    78    1
    94   150   151    1
    95    70    69    1
    96   182   183   ar
    97    32    31    2
    98    56    55    1
    99    56    57    2
   100   132   131    2
   101   107   108    1
   102   111   112    1
   103   166   167    1
   104    64    65    1
   105   131   130    1
   106   152   151    2
   107    67    66    2
   108   112   113    1
   109   112   115    1
   110   151   153   am
   111   168   167   ar
   112   168   170   ar
   113    31    30    1
   114   167   169   ar
   115   125   124    2
   116    66    65    1
   117    66    68   am
   118   184   185    1
   119    69    68    1
   120    69    72    1
   121   114   113    2
   122   108   109   ar
   123   108   110   ar
   124   113   122   am
   125    33    30    1
   126    33    34    1
   127    73    72    1
   128   170   172   ar
   129   124   123    1
   130   115   116    1
   131    30    29    1
   132   122   123    1
   133    36    34   ar
   134    36    38   ar
   135    34    35   ar
   136   169   171   ar
   137   130   129    1
   138   130   133    1
   139   213   211    1
   140   185   186    1
   141   212   211    1
   142    38    37   ar
   143    35    37   ar
   144   172   171   ar
   145   172   173    1
   146   123   126    1
   147   133   134    1
   148   211   210    1
   149   116   117    1
   150   186   188   am
   151   186   187    2
   152    22    20    1
   153   188   189    1
   154   126   127    1
   155   126   128    1
   156   117   118    1
   157   134   136    1
   158   134   135    1
   159   217   216    2
   160   191   190    2
   161    20    19    1
   162   210   207    1
   163   118   119    2
   164   192   189    1
   165   189   190    1
   166   216   215    1
   167    28    27    1
   168   207   208    1
   169   207   206    1
   170    19    16    1
   171    19    21    1
   172   119   120    1
   173   119   121    1
   174    27    24    1
   175   208   209    2
   176   208   214   am
   177    23    24    1
   178    23    17   am
   179    16    17    1
   180    16    15    1
   181   214   215    1
   182    26    25    2
   183   215   218    1
   184    24    25    1
   185    17    18    2
   186   206   202   am
   187   218   219    1
   188    11    10    2
   189     7     5    1
   190    15    10   am
   191   203   202    2
   192    10     9    1
   193   202   201    1
   194     5     6    1
   195     5     2    1
   196   199   197    1
   197   196   195    2
   198   219   220    1
   199   220   221    1
   200     9     8    1
   201     9    12    1
   202   201   200    1
   203   201   204    1
   204     8     3   am
   205   195   200   am
   206   195   194    1
   207     3     2    1
   208     3     4    2
   209     2     1    1
   210   193   194    1
   211   197   194    1
   212   197   198    1
   213   221   222    1
   214    13    12    1
   215   204   205    1
   216    12    14    1
