@<TRIPOS>MOLECULE
tmp/2pbjD01.pdb
 147 144 0 0 0
SMALL
GASTEIGER

@<TRIPOS>ATOM
      1  N         18.5410   58.1890   21.3840 N.3     8  TYR8       -0.1241
      2  CA        17.1720   58.6200   21.1720 C.3     8  TYR8        0.1605
      3  C         16.8220   58.7260   22.6490 C.2     8  TYR8        0.2264
      4  O         16.6720   57.7020   23.3260 O.2     8  TYR8       -0.2867
      5  CB        16.2920   57.5400   20.5210 C.3     8  TYR8        0.0534
      6  CG        16.6190   57.1790   19.0970 C.ar    8  TYR8       -0.0201
      7  CD1       16.9350   58.1560   18.1470 C.ar    8  TYR8       -0.0009
      8  CD2       16.6130   55.8500   18.6950 C.ar    8  TYR8       -0.0009
      9  CE1       17.2460   57.8040   16.8270 C.ar    8  TYR8        0.0417
     10  CE2       16.9210   55.4830   17.3900 C.ar    8  TYR8        0.0417
     11  CZ        17.2420   56.4570   16.4600 C.ar    8  TYR8        0.1957
     12  OH        17.6070   56.0630   15.1880 O.3     8  TYR8       -0.2866
     13  N         14.1030   56.6350   24.1370 N.3    11  CYS11      -0.1221
     14  CA        14.2860   55.2270   23.7990 C.3    11  CYS11       0.1794
     15  C         14.8910   54.4950   25.0070 C.2    11  CYS11       0.2443
     16  O         15.9650   54.8530   25.4920 O.2    11  CYS11      -0.2733
     17  CB        15.2140   55.1240   22.5890 C.3    11  CYS11       0.0970
     18  SG        16.1830   53.6210   22.4630 S.3    11  CYS11      -0.0800
     19  N         14.2120   53.4550   25.5030 N.am   12  PRO12      -0.2718
     20  CA        14.6890   52.6890   26.6580 C.3    12  PRO12       0.1535
     21  C         16.1350   52.2360   26.5970 C.2    12  PRO12       0.2598
     22  O         16.8480   52.3130   27.5940 O.2    12  PRO12      -0.2715
     23  CB        13.7150   51.5150   26.7270 C.3    12  PRO12       0.0310
     24  CG        13.2950   51.3540   25.2840 C.3    12  PRO12       0.0237
     25  CD        13.0600   52.7880   24.8840 C.3    12  PRO12       0.0939
     26  N         16.5800   51.7630   25.4410 N.am   13  PHE13      -0.1974
     27  CA        17.9590   51.2990   25.3230 C.3    13  PHE13       0.1639
     28  C         18.9560   52.4240   25.6180 C.2    13  PHE13       0.2290
     29  O         20.0480   52.1910   26.1260 O.2    13  PHE13      -0.2864
     30  CB        18.1880   50.6960   23.9350 C.3    13  PHE13       0.0560
     31  CG        17.2290   49.5900   23.6050 C.ar   13  PHE13      -0.0200
     32  CD1       16.2670   49.7480   22.6180 C.ar   13  PHE13      -0.0042
     33  CD2       17.2380   48.4090   24.3360 C.ar   13  PHE13      -0.0042
     34  CE1       15.3240   48.7450   22.3710 C.ar   13  PHE13      -0.0003
     35  CE2       16.3000   47.4030   24.0970 C.ar   13  PHE13      -0.0003
     36  CZ        15.3450   47.5740   23.1150 C.ar   13  PHE13      -0.0000
     37  N         18.7890   53.4470   29.3290 N.3    16  LYS16      -0.1245
     38  CA        19.6110   52.5440   30.1070 C.3    16  LYS16       0.1561
     39  C         21.0370   53.0580   30.1950 C.2    16  LYS16       0.2260
     40  O         21.5840   53.1990   31.2880 O.2    16  LYS16      -0.2867
     41  CB        19.6190   51.1360   29.5080 C.3    16  LYS16       0.0271
     42  CG        18.2960   50.3940   29.6030 C.3    16  LYS16       0.0035
     43  CD        18.5490   48.9080   29.6390 C.3    16  LYS16       0.0206
     44  CE        19.4610   48.4720   28.5110 C.3    16  LYS16       0.1093
     45  NZ        19.9920   47.0910   28.7070 N.3    16  LYS16      -0.1314
     46  N         18.6900   59.8750   10.5970 N.3    38  ARG38      -0.1245
     47  CA        19.7840   59.2340   11.3180 C.3    38  ARG38       0.1563
     48  C         21.1570   59.6280   10.8050 C.2    38  ARG38       0.2260
     49  O         22.1000   58.8280   10.8380 O.2    38  ARG38      -0.2867
     50  CB        19.6270   57.7120   11.2460 C.3    38  ARG38       0.0307
     51  CG        18.3010   57.2030   11.8080 C.3    38  ARG38       0.0489
     52  CD        18.3490   55.7240   12.0870 C.3    38  ARG38       0.2205
     53  NE        18.3320   54.9470   10.8560 N.pl3  38  ARG38      -0.0865
     54  CZ        17.2640   54.8170   10.0660 C.cat  38  ARG38       0.5346
     55  NH1       16.1110   55.4180   10.3730 N.pl3  38  ARG38       0.1354
     56  NH2       17.3460   54.0580    8.9760 N.pl3  38  ARG38       0.1354
     57  N         27.4300   49.9420   12.4080 N.3    46  TYR46      -0.1227
     58  CA        26.4320   49.3810   13.3220 C.3    46  TYR46       0.1736
     59  C         25.2480   50.3210   13.2010 C.2    46  TYR46       0.2595
     60  O         25.3510   51.5040   13.5100 O.2    46  TYR46      -0.2718
     61  CB        26.9710   49.3650   14.7520 C.3    46  TYR46       0.0548
     62  CG        25.9880   48.8540   15.7620 C.ar   46  TYR46      -0.0200
     63  CD1       25.2240   49.7330   16.5280 C.ar   46  TYR46      -0.0009
     64  CD2       25.8250   47.4920   15.9670 C.ar   46  TYR46      -0.0009
     65  CE1       24.3290   49.2620   17.4800 C.ar   46  TYR46       0.0417
     66  CE2       24.9360   47.0140   16.9090 C.ar   46  TYR46       0.0417
     67  CZ        24.1970   47.9040   17.6630 C.ar   46  TYR46       0.1957
     68  OH        23.3560   47.4190   18.6310 O.3    46  TYR46      -0.2866
     69  N         24.1240   49.7840   12.7490 N.am   47  ARG47      -0.1966
     70  CA        22.9380   50.5860   12.5040 C.3    47  ARG47       0.1729
     71  C         21.9020   50.7580   13.5970 C.2    47  ARG47       0.2616
     72  O         20.7600   51.0930   13.2990 O.2    47  ARG47      -0.2715
     73  CB        22.2380   50.0450   11.2650 C.3    47  ARG47       0.0348
     74  CG        23.0610   50.1060    9.9950 C.3    47  ARG47       0.0492
     75  CD        22.9210   51.4600    9.3440 C.3    47  ARG47       0.2205
     76  NE        23.9030   52.4260    9.8290 N.pl3  47  ARG47      -0.0865
     77  CZ        23.7080   53.7360    9.7990 C.cat  47  ARG47       0.5346
     78  NH1       22.5750   54.2220    9.3220 N.pl3  47  ARG47       0.1354
     79  NH2       24.6460   54.5580   10.2250 N.pl3  47  ARG47       0.1354
     80  N         22.2570   50.5430   14.8530 N.am   48  LYS48      -0.1963
     81  CA        21.2660   50.7310   15.9060 C.3    48  LYS48       0.1728
     82  C         21.7550   51.7260   16.9550 C.2    48  LYS48       0.2616
     83  O         22.9510   51.8410   17.1850 O.2    48  LYS48      -0.2715
     84  CB        20.9580   49.4030   16.5910 C.3    48  LYS48       0.0311
     85  CG        20.3580   48.3340   15.7020 C.3    48  LYS48       0.0038
     86  CD        20.2720   47.0200   16.4690 C.3    48  LYS48       0.0206
     87  CE        19.8660   45.8550   15.5920 C.3    48  LYS48       0.1093
     88  NZ        20.1620   44.5500   16.2600 N.3    48  LYS48      -0.1314
     89  N         20.8370   52.4570   17.5780 N.am   49  VAL49      -0.1964
     90  CA        21.2410   53.3800   18.6150 C.3    49  VAL49       0.1712
     91  C         20.6590   52.7590   19.8730 C.2    49  VAL49       0.2458
     92  O         19.5980   52.1360   19.8190 O.2    49  VAL49      -0.2730
     93  CB        20.6850   54.8310   18.3990 C.3    49  VAL49       0.0289
     94  CG1       20.4030   55.0900   16.9330 C.3    49  VAL49       0.0023
     95  CG2       19.4810   55.0590   19.2410 C.3    49  VAL49       0.0023
     96  N         21.2970   52.9810   21.0370 N.am   50  PRO50      -0.2727
     97  CA        22.5030   53.7710   21.2690 C.3    50  PRO50       0.1402
     98  C         23.8110   53.1780   20.8250 C.2    50  PRO50       0.2269
     99  O         23.9610   51.9670   20.7410 O.2    50  PRO50      -0.2865
    100  CB        22.4840   53.9560   22.7660 C.3    50  PRO50       0.0296
    101  CG        22.0100   52.6150   23.2110 C.3    50  PRO50       0.0237
    102  CD        20.8450   52.3700   22.2990 C.3    50  PRO50       0.0939
    103  N         28.8240   49.2070   20.9750 N.3    64  ASN64      -0.1225
    104  CA        27.5030   49.1700   20.3470 C.3    64  ASN64       0.1785
    105  C         26.2310   48.7860   21.0780 C.2    64  ASN64       0.2597
    106  O         25.3620   49.6320   21.2660 O.2    64  ASN64      -0.2718
    107  CB        27.5640   48.3690   19.0550 C.3    64  ASN64       0.1169
    108  CG        28.5080   48.9880   18.0360 C.2    64  ASN64       0.2627
    109  OD1       28.6180   50.2140   17.9220 O.2    64  ASN64      -0.2716
    110  ND2       29.1840   48.1390   17.2750 N.am   64  ASN64      -0.0877
    111  N         26.0470   47.5450   21.4780 N.am   65  ASP65      -0.1960
    112  CA        24.7740   47.2400   22.1440 C.3    65  ASP65       0.1840
    113  C         24.6690   48.0310   23.4620 C.2    65  ASP65       0.2623
    114  O         25.6910   48.2780   24.1090 O.2    65  ASP65      -0.2715
    115  CB        24.6830   45.7390   22.4080 C.3    65  ASP65       0.1450
    116  CG        23.3270   45.3190   22.8460 C.2    65  ASP65       0.3671
    117  OD1       22.5240   44.9450   21.9700 O.co2  65  ASP65      -0.2456
    118  OD2       23.0520   45.3740   24.0600 O.co2  65  ASP65      -0.2456
    119  N         23.4630   48.4290   23.8650 N.am   66  SER66      -0.1936
    120  CA        23.2860   49.1930   25.1080 C.3    66  SER66       0.2055
    121  C         23.7620   48.4540   26.3610 C.2    66  SER66       0.2643
    122  O         24.3330   49.0590   27.2660 O.2    66  SER66      -0.2714
    123  CB        21.8290   49.5650   25.3250 C.3    66  SER66       0.2130
    124  OG        21.1440   48.5400   26.0260 O.3    66  SER66      -0.2179
    125  N         23.5070   47.1510   26.4290 N.am   67  SER67      -0.1949
    126  CA        23.9470   46.3610   27.5710 C.3    67  SER67       0.1924
    127  C         25.4580   46.1100   27.4630 C.2    67  SER67       0.2314
    128  O         26.1470   45.9960   28.4910 O.2    67  SER67      -0.2863
    129  CB        23.1950   45.0300   27.6170 C.3    67  SER67       0.2116
    130  OG        21.8030   45.2570   27.6940 O.3    67  SER67      -0.2180
    131  N         27.1850   39.6340   26.7720 N.3   109  LYS109     -0.1245
    132  CA        26.6100   40.9630   26.9860 C.3   109  LYS109      0.1561
    133  C         26.2400   41.3200   28.4330 C.2   109  LYS109      0.2260
    134  O         26.3940   42.4690   28.8240 O.2   109  LYS109     -0.2867
    135  CB        25.4000   41.1590   26.0620 C.3   109  LYS109      0.0271
    136  CG        24.1310   40.5000   26.5660 C.3   109  LYS109      0.0035
    137  CD        23.0090   40.4940   25.5430 C.3   109  LYS109      0.0206
    138  CE        22.6750   41.8860   25.0320 C.3   109  LYS109      0.1093
    139  NZ        21.5320   41.8490   24.0680 N.3   109  LYS109     -0.1314
    140  N         15.4510   43.9020   29.3480 N.3   140  ASP140     -0.1239
    141  CA        15.1630   44.1560   27.9600 C.3   140  ASP140      0.1674
    142  C         14.5680   43.0460   27.1110 C.2   140  ASP140      0.2266
    143  O         14.3560   43.2430   25.9070 O.2   140  ASP140     -0.2867
    144  CB        16.3500   44.8230   27.2430 C.3   140  ASP140      0.1410
    145  CG        17.6510   44.2600   27.6280 C.2   140  ASP140      0.3668
    146  OD1       17.7380   43.0250   27.6680 O.co2 140  ASP140     -0.2456
    147  OD2       18.5890   45.0480   27.8690 O.co2 140  ASP140     -0.2456
@<TRIPOS>BOND
     1    56    54    1
     2    78    77    1
     3    75    76    1
     4    75    74    1
     5    77    76    2
     6    77    79    1
     7    74    73    1
     8    54    55    1
     9    54    53    2
    10    46    47    1
    11    48    49    2
    12    48    47    1
    13    53    52    1
    14    50    47    1
    15    50    51    1
    16    73    70    1
    17    51    52    1
    18    57    58    1
    19    70    69    1
    20    70    71    1
    21    69    59   am
    22    59    58    1
    23    59    60    2
    24    72    71    2
    25    58    61    1
    26    71    80   am
    27    61    62    1
    28    80    81    1
    29    12    11    1
    30    87    88    1
    31    87    86    1
    32    85    86    1
    33    85    84    1
    34    62    64   ar
    35    62    63   ar
    36    81    84    1
    37    81    82    1
    38    64    66   ar
    39    11     9   ar
    40    11    10   ar
    41    63    65   ar
    42     9     7   ar
    43    66    67   ar
    44    94    93    1
    45    82    83    2
    46    82    89   am
    47   110   108   am
    48    10     8   ar
    49    65    67   ar
    50    89    90    1
    51    67    68    1
    52   109   108    2
    53   108   107    1
    54     7     6   ar
    55    93    90    1
    56    93    95    1
    57    90    91    1
    58     8     6   ar
    59   107   104    1
    60     6     5    1
    61    92    91    2
    62    91    96   am
    63   104   103    1
    64   104   105    1
    65     5     2    1
    66    99    98    2
    67    98    97    1
    68    96    97    1
    69    96   102    1
    70   105   106    2
    71   105   111   am
    72     2     1    1
    73     2     3    1
    74    97   100    1
    75   111   112    1
    76   117   116   ar
    77   112   115    1
    78   112   113    1
    79   102   101    1
    80    34    32   ar
    81    34    36   ar
    82   115   116    1
    83    18    17    1
    84    17    14    1
    85    32    31   ar
    86     3     4    2
    87   100   101    1
    88   116   118   ar
    89    36    35   ar
    90   113   119   am
    91   113   114    2
    92    31    30    1
    93    31    33   ar
    94    14    13    1
    95    14    15    1
    96   119   120    1
    97    30    27    1
    98   139   138    1
    99    35    33   ar
   100    25    24    1
   101    25    19    1
   102    15    16    2
   103    15    19   am
   104   138   137    1
   105   120   123    1
   106   120   121    1
   107    24    23    1
   108    27    26    1
   109    27    28    1
   110   123   124    1
   111    26    21   am
   112    19    20    1
   113   137   136    1
   114    28    29    2
   115   143   142    2
   116   135   136    1
   117   135   132    1
   118   121   125   am
   119   121   122    2
   120   125   126    1
   121    21    20    1
   122    21    22    2
   123    20    23    1
   124   131   132    1
   125   132   133    1
   126   142   141    1
   127   144   145    1
   128   144   141    1
   129   127   126    1
   130   127   128    2
   131   126   129    1
   132   129   130    1
   133   145   146   ar
   134   145   147   ar
   135   141   140    1
   136   133   134    2
   137    44    45    1
   138    44    43    1
   139    37    38    1
   140    41    42    1
   141    41    38    1
   142    42    43    1
   143    38    39    1
   144    39    40    2
