@<TRIPOS>MOLECULE
tmp/2pbjD00.pdb
 203 196 0 0 0
SMALL
GASTEIGER

@<TRIPOS>ATOM
      1  N         18.5410   58.1890   21.3840 N.3     8  TYR8       -0.1241
      2  CA        17.1720   58.6200   21.1720 C.3     8  TYR8        0.1605
      3  C         16.8220   58.7260   22.6490 C.2     8  TYR8        0.2264
      4  O         16.6720   57.7020   23.3260 O.2     8  TYR8       -0.2867
      5  CB        16.2920   57.5400   20.5210 C.3     8  TYR8        0.0534
      6  CG        16.6190   57.1790   19.0970 C.ar    8  TYR8       -0.0201
      7  CD1       16.9350   58.1560   18.1470 C.ar    8  TYR8       -0.0009
      8  CD2       16.6130   55.8500   18.6950 C.ar    8  TYR8       -0.0009
      9  CE1       17.2460   57.8040   16.8270 C.ar    8  TYR8        0.0417
     10  CE2       16.9210   55.4830   17.3900 C.ar    8  TYR8        0.0417
     11  CZ        17.2420   56.4570   16.4600 C.ar    8  TYR8        0.1957
     12  OH        17.6070   56.0630   15.1880 O.3     8  TYR8       -0.2866
     13  N         14.1630   59.3190   24.5520 N.3    10  THR10      -0.1203
     14  CA        13.0160   58.5870   25.0810 C.3    10  THR10       0.1994
     15  C         13.0290   57.0910   24.7660 C.2    10  THR10       0.2618
     16  O         12.0940   56.3740   25.0840 O.2    10  THR10      -0.2717
     17  CB        11.7300   59.2070   24.5710 C.3    10  THR10       0.1784
     18  OG1       11.7030   59.1310   23.1390 O.3    10  THR10      -0.2211
     19  CG2       11.6710   60.6740   24.9950 C.3    10  THR10       0.0376
     20  N         14.1030   56.6350   24.1370 N.am   11  CYS11      -0.1956
     21  CA        14.2860   55.2270   23.7990 C.3    11  CYS11       0.1828
     22  C         14.8910   54.4950   25.0070 C.2    11  CYS11       0.2467
     23  O         15.9650   54.8530   25.4920 O.2    11  CYS11      -0.2730
     24  CB        15.2140   55.1240   22.5890 C.3    11  CYS11       0.0996
     25  SG        16.1830   53.6210   22.4630 S.3    11  CYS11      -0.0797
     26  N         14.2120   53.4550   25.5030 N.am   12  PRO12      -0.2715
     27  CA        14.6890   52.6890   26.6580 C.3    12  PRO12       0.1536
     28  C         16.1350   52.2360   26.5970 C.2    12  PRO12       0.2598
     29  O         16.8480   52.3130   27.5940 O.2    12  PRO12      -0.2715
     30  CB        13.7150   51.5150   26.7270 C.3    12  PRO12       0.0310
     31  CG        13.2950   51.3540   25.2840 C.3    12  PRO12       0.0237
     32  CD        13.0600   52.7880   24.8840 C.3    12  PRO12       0.0939
     33  N         16.5800   51.7630   25.4410 N.am   13  PHE13      -0.1974
     34  CA        17.9590   51.2990   25.3230 C.3    13  PHE13       0.1639
     35  C         18.9560   52.4240   25.6180 C.2    13  PHE13       0.2290
     36  O         20.0480   52.1910   26.1260 O.2    13  PHE13      -0.2864
     37  CB        18.1880   50.6960   23.9350 C.3    13  PHE13       0.0560
     38  CG        17.2290   49.5900   23.6050 C.ar   13  PHE13      -0.0200
     39  CD1       16.2670   49.7480   22.6180 C.ar   13  PHE13      -0.0042
     40  CD2       17.2380   48.4090   24.3360 C.ar   13  PHE13      -0.0042
     41  CE1       15.3240   48.7450   22.3710 C.ar   13  PHE13      -0.0003
     42  CE2       16.3000   47.4030   24.0970 C.ar   13  PHE13      -0.0003
     43  CZ        15.3450   47.5740   23.1150 C.ar   13  PHE13      -0.0000
     44  N         15.7440   60.3660   14.3920 N.3    35  PRO35      -0.2116
     45  CA        15.1620   59.0590   14.0710 C.3    35  PRO35       0.1372
     46  C         14.7340   58.8200   12.6180 C.2    35  PRO35       0.2244
     47  O         14.5930   57.6770   12.1820 O.2    35  PRO35      -0.2868
     48  CB        14.0030   58.9540   15.0490 C.3    35  PRO35       0.0268
     49  CG        13.6070   60.3580   15.2450 C.3    35  PRO35       0.0207
     50  CD        14.9050   61.0810   15.3670 C.3    35  PRO35       0.0892
     51  N         18.6900   59.8750   10.5970 N.3    38  ARG38      -0.1245
     52  CA        19.7840   59.2340   11.3180 C.3    38  ARG38       0.1563
     53  C         21.1570   59.6280   10.8050 C.2    38  ARG38       0.2260
     54  O         22.1000   58.8280   10.8380 O.2    38  ARG38      -0.2867
     55  CB        19.6270   57.7120   11.2460 C.3    38  ARG38       0.0307
     56  CG        18.3010   57.2030   11.8080 C.3    38  ARG38       0.0489
     57  CD        18.3490   55.7240   12.0870 C.3    38  ARG38       0.2205
     58  NE        18.3320   54.9470   10.8560 N.pl3  38  ARG38      -0.0865
     59  CZ        17.2640   54.8170   10.0660 C.cat  38  ARG38       0.5346
     60  NH1       16.1110   55.4180   10.3730 N.pl3  38  ARG38       0.1354
     61  NH2       17.3460   54.0580    8.9760 N.pl3  38  ARG38       0.1354
     62  N         24.1240   49.7840   12.7490 N.3    47  ARG47      -0.1231
     63  CA        22.9380   50.5860   12.5040 C.3    47  ARG47       0.1694
     64  C         21.9020   50.7580   13.5970 C.2    47  ARG47       0.2591
     65  O         20.7600   51.0930   13.2990 O.2    47  ARG47      -0.2718
     66  CB        22.2380   50.0450   11.2650 C.3    47  ARG47       0.0321
     67  CG        23.0610   50.1060    9.9950 C.3    47  ARG47       0.0489
     68  CD        22.9210   51.4600    9.3440 C.3    47  ARG47       0.2205
     69  NE        23.9030   52.4260    9.8290 N.pl3  47  ARG47      -0.0865
     70  CZ        23.7080   53.7360    9.7990 C.cat  47  ARG47       0.5346
     71  NH1       22.5750   54.2220    9.3220 N.pl3  47  ARG47       0.1354
     72  NH2       24.6460   54.5580   10.2250 N.pl3  47  ARG47       0.1354
     73  N         22.2570   50.5430   14.8530 N.am   48  LYS48      -0.1980
     74  CA        21.2660   50.7310   15.9060 C.3    48  LYS48       0.1596
     75  C         21.7550   51.7260   16.9550 C.2    48  LYS48       0.2287
     76  O         22.9510   51.8410   17.1850 O.2    48  LYS48      -0.2864
     77  CB        20.9580   49.4030   16.5910 C.3    48  LYS48       0.0298
     78  CG        20.3580   48.3340   15.7020 C.3    48  LYS48       0.0038
     79  CD        20.2720   47.0200   16.4690 C.3    48  LYS48       0.0206
     80  CE        19.8660   45.8550   15.5920 C.3    48  LYS48       0.1093
     81  NZ        20.1620   44.5500   16.2600 N.3    48  LYS48      -0.1314
     82  N         15.4510   43.9020   29.3480 N.3   140  ASP140     -0.1225
     83  CA        15.1630   44.1560   27.9600 C.3   140  ASP140      0.1805
     84  C         14.5680   43.0460   27.1110 C.2   140  ASP140      0.2597
     85  O         14.3560   43.2430   25.9070 O.2   140  ASP140     -0.2718
     86  CB        16.3500   44.8230   27.2430 C.3   140  ASP140      0.1424
     87  CG        17.6510   44.2600   27.6280 C.2   140  ASP140      0.3668
     88  OD1       17.7380   43.0250   27.6680 O.co2 140  ASP140     -0.2456
     89  OD2       18.5890   45.0480   27.8690 O.co2 140  ASP140     -0.2456
     90  N         14.2530   41.9050   27.7090 N.am  141  ASP141     -0.1974
     91  CA        13.6330   40.8460   26.9240 C.3   141  ASP141      0.1709
     92  C         12.1650   40.7270   27.3040 C.2   141  ASP141      0.2293
     93  O         11.3680   40.0770   26.6120 O.2   141  ASP141     -0.2864
     94  CB        14.3470   39.5030   27.0970 C.3   141  ASP141      0.1436
     95  CG        15.5420   39.3740   26.1900 C.2   141  ASP141      0.3671
     96  OD1       15.5790   40.1050   25.1850 O.co2 141  ASP141     -0.2456
     97  OD2       16.4360   38.5460   26.4600 O.co2 141  ASP141     -0.2456
     98  N         10.9080   45.8830   28.5580 N.3   144  VAL144     -0.1231
     99  CA        10.7620   46.8770   27.4980 C.3   144  VAL144      0.1692
    100  C          9.5810   46.6120   26.5770 C.2   144  VAL144      0.2592
    101  O          8.9370   47.5490   26.1050 O.2   144  VAL144     -0.2718
    102  CB        12.0380   47.0110   26.6310 C.3   144  VAL144      0.0266
    103  CG1       13.2650   46.7670   27.4740 C.3   144  VAL144      0.0020
    104  CG2       11.9960   46.0700   25.4580 C.3   144  VAL144      0.0020
    105  N          9.2790   45.3410   26.3200 N.am  145  HIS145     -0.1976
    106  CA         8.1640   45.0030   25.4400 C.3   145  HIS145      0.1656
    107  C          6.8110   45.4160   26.0310 C.2   145  HIS145      0.2291
    108  O          5.7780   45.3240   25.3790 O.2   145  HIS145     -0.2864
    109  CB         8.1840   43.5090   25.1290 C.3   145  HIS145      0.0771
    110  CG         9.4380   43.0560   24.4520 C.ar  145  HIS145      0.0820
    111  ND1       10.0920   43.8210   23.5100 N.ar  145  HIS145     -0.2267
    112  CD2       10.1560   41.9140   24.5710 C.ar  145  HIS145      0.1154
    113  CE1       11.1620   43.1740   23.0810 C.ar  145  HIS145      0.1986
    114  NE2       11.2240   42.0140   23.7090 N.ar  145  HIS145     -0.2212
    115  N          6.4320   48.5160   27.2370 N.3   147  ILE147     -0.1231
    116  CA         6.3360   49.9650   27.0840 C.3   147  ILE147      0.1692
    117  C          5.4090   50.4470   25.9880 C.2   147  ILE147      0.2592
    118  O          4.3820   51.0600   26.2790 O.2   147  ILE147     -0.2718
    119  CB         7.7150   50.6060   26.8610 C.3   147  ILE147      0.0266
    120  CG1        8.5940   50.3600   28.0810 C.3   147  ILE147      0.0019
    121  CG2        7.5650   52.0970   26.6490 C.3   147  ILE147      0.0020
    122  CD1       10.0070   50.7770   27.8730 C.3   147  ILE147      0.0001
    123  N          5.7660   50.1810   24.7340 N.am  148  SER148     -0.1952
    124  CA         4.9530   50.6300   23.6080 C.3   148  SER148      0.1924
    125  C          3.4740   50.3290   23.7920 C.2   148  SER148      0.2314
    126  O          2.6410   51.2300   23.7940 O.2   148  SER148     -0.2863
    127  CB         5.4480   50.0100   22.3040 C.3   148  SER148      0.2116
    128  OG         6.7130   50.5460   21.9540 O.3   148  SER148     -0.2180
    129  N          1.1180   53.6610   24.1610 N.3   152  TYR152     -0.1241
    130  CA         0.4430   53.8760   22.8800 C.3   152  TYR152      0.1605
    131  C         -0.8470   53.0830   22.8530 C.2   152  TYR152      0.2264
    132  O         -1.3770   52.8440   21.7790 O.2   152  TYR152     -0.2867
    133  CB         1.2990   53.3890   21.7020 C.3   152  TYR152      0.0534
    134  CG         2.5430   54.1910   21.4310 C.ar  152  TYR152     -0.0201
    135  CD1        2.4570   55.5180   21.0120 C.ar  152  TYR152     -0.0009
    136  CD2        3.8120   53.6320   21.6050 C.ar  152  TYR152     -0.0009
    137  CE1        3.6000   56.2730   20.7780 C.ar  152  TYR152      0.0417
    138  CE2        4.9620   54.3740   21.3760 C.ar  152  TYR152      0.0417
    139  CZ         4.8460   55.6980   20.9650 C.ar  152  TYR152      0.1957
    140  OH         5.9700   56.4720   20.7680 O.3   152  TYR152     -0.2866
    141  N          4.1030   60.4880   21.4020 N.3   162  PHE162     -0.1241
    142  CA         4.8420   60.9410   20.2350 C.3   162  PHE162      0.1605
    143  C          5.0990   62.4270   20.2380 C.2   162  PHE162      0.2264
    144  O          5.9640   62.9200   19.5150 O.2   162  PHE162     -0.2867
    145  CB         4.1270   60.5390   18.9600 C.3   162  PHE162      0.0534
    146  CG         5.0200   59.8610   17.9910 C.ar  162  PHE162     -0.0203
    147  CD1        5.8600   60.5970   17.1800 C.ar  162  PHE162     -0.0042
    148  CD2        5.0770   58.4790   17.9350 C.ar  162  PHE162     -0.0042
    149  CE1        6.7490   59.9690   16.3260 C.ar  162  PHE162     -0.0003
    150  CE2        5.9630   57.8420   17.0840 C.ar  162  PHE162     -0.0003
    151  CZ         6.8020   58.5880   16.2770 C.ar  162  PHE162     -0.0000
    152  N          8.0100   62.6970   22.0670 N.3   165  ILE165     -0.1245
    153  CA         9.1100   62.1500   21.2650 C.3   165  ILE165      0.1561
    154  C          9.7040   63.2500   20.3870 C.2   165  ILE165      0.2260
    155  O         10.9150   63.4480   20.3720 O.2   165  ILE165     -0.2867
    156  CB         8.6420   61.0080   20.3220 C.3   165  ILE165      0.0252
    157  CG1        8.0070   59.8660   21.1250 C.3   165  ILE165      0.0019
    158  CG2        9.8150   60.5060   19.4950 C.3   165  ILE165      0.0019
    159  CD1        8.9310   59.1970   22.1060 C.3   165  ILE165      0.0001
    160  N         14.0110   66.4280   15.5720 N.3   171  PHE171     -0.1241
    161  CA        13.1570   66.4380   14.3880 C.3   171  PHE171      0.1605
    162  C         13.1040   67.8680   13.8520 C.2   171  PHE171      0.2264
    163  O         12.9650   68.8150   14.6320 O.2   171  PHE171     -0.2867
    164  CB        11.7090   66.0500   14.7200 C.3   171  PHE171      0.0534
    165  CG        11.4820   64.5860   14.9540 C.ar  171  PHE171     -0.0203
    166  CD1       11.6970   64.0260   16.2090 C.ar  171  PHE171     -0.0042
    167  CD2       10.9690   63.7810   13.9360 C.ar  171  PHE171     -0.0042
    168  CE1       11.3960   62.6860   16.4480 C.ar  171  PHE171     -0.0003
    169  CE2       10.6660   62.4430   14.1630 C.ar  171  PHE171     -0.0003
    170  CZ        10.8780   61.8940   15.4230 C.ar  171  PHE171     -0.0000
    171  N          2.4370   54.2430   15.3970 N.3   187  MET187     -0.1245
    172  CA         2.6830   53.5760   16.6700 C.3   187  MET187      0.1570
    173  C          1.4500   53.0240   17.3740 C.2   187  MET187      0.2261
    174  O          1.5340   51.9810   18.0190 O.2   187  MET187     -0.2867
    175  CB         3.4650   54.4870   17.6180 C.3   187  MET187      0.0387
    176  CG         4.9440   54.6160   17.2450 C.3   187  MET187      0.0595
    177  SD         5.6550   53.1000   16.5280 S.3   187  MET187     -0.1393
    178  CE         5.8410   52.0210   18.0210 C.3   187  MET187      0.0692
    179  N          2.3780   44.5290   18.4280 N.3   194  LEU194     -0.1245
    180  CA         3.3280   44.2210   19.4890 C.3   194  LEU194      0.1561
    181  C          2.5920   43.5920   20.6640 C.2   194  LEU194      0.2260
    182  O          3.0550   42.6110   21.2360 O.2   194  LEU194     -0.2867
    183  CB         4.0440   45.4870   19.9480 C.3   194  LEU194      0.0270
    184  CG         4.9500   46.1690   18.9190 C.3   194  LEU194      0.0019
    185  CD1        5.6140   47.3860   19.5440 C.3   194  LEU194      0.0001
    186  CD2        6.0030   45.1920   18.4350 C.3   194  LEU194      0.0001
    187  N          3.8140   39.7440   21.4050 N.3   198  HIS198     -0.1241
    188  CA         4.5210   39.4960   22.6600 C.3   198  HIS198      0.1621
    189  C          3.7000   38.8250   23.7620 C.2   198  HIS198      0.2264
    190  O          4.1170   38.7790   24.9160 O.2   198  HIS198     -0.2867
    191  CB         5.1270   40.7990   23.1770 C.3   198  HIS198      0.0745
    192  CG         6.3520   41.2240   22.4330 C.ar  198  HIS198      0.0817
    193  ND1        7.5500   40.5470   22.5280 N.ar  198  HIS198     -0.2268
    194  CD2        6.5610   42.2370   21.5580 C.ar  198  HIS198      0.1154
    195  CE1        8.4420   41.1240   21.7440 C.ar  198  HIS198      0.1986
    196  NE2        7.8680   42.1520   21.1440 N.ar  198  HIS198     -0.2212
    197  N         11.9070   55.9970   30.6890 N.3   244  VAL244     -0.1245
    198  CA        11.4340   56.4500   29.3910 C.3   244  VAL244      0.1561
    199  C          9.9650   56.8540   29.3720 C.2   244  VAL244      0.2260
    200  O          9.5620   57.6650   28.5430 O.2   244  VAL244     -0.2867
    201  CB        11.6810   55.3670   28.3380 C.3   244  VAL244      0.0252
    202  CG1       10.6120   55.4240   27.2630 C.3   244  VAL244      0.0019
    203  CG2       13.0740   55.5590   27.7320 C.3   244  VAL244      0.0019
@<TRIPOS>BOND
     1    61    59    1
     2    71    70    1
     3    68    69    1
     4    68    67    1
     5    70    69    2
     6    70    72    1
     7    67    66    1
     8    59    60    1
     9    59    58    2
    10    51    52    1
    11    53    54    2
    12    53    52    1
    13    58    57    1
    14    55    52    1
    15    55    56    1
    16    66    63    1
    17    56    57    1
    18    47    46    2
    19    63    62    1
    20    63    64    1
    21    46    45    1
    22    65    64    2
    23    64    73   am
    24   162   161    1
    25   162   163    2
    26   167   169   ar
    27   167   165   ar
    28    45    44    1
    29    45    48    1
    30   169   170   ar
    31   161   164    1
    32   161   160    1
    33    44    50    1
    34   164   165    1
    35    73    74    1
    36   165   166   ar
    37    48    49    1
    38    12    11    1
    39    49    50    1
    40   171   172    1
    41   170   168   ar
    42    80    81    1
    43    80    79    1
    44    78    79    1
    45    78    77    1
    46    74    77    1
    47    74    75    1
    48   166   168   ar
    49   151   149   ar
    50   151   150   ar
    51   149   147   ar
    52    11     9   ar
    53    11    10   ar
    54   177   176    1
    55   177   178    1
    56   172   173    1
    57   172   175    1
    58     9     7   ar
    59    75    76    2
    60   150   148   ar
    61   147   146   ar
    62   176   175    1
    63   173   174    2
    64    10     8   ar
    65   148   146   ar
    66   146   145    1
    67     7     6   ar
    68   179   180    1
    69   186   184    1
    70     8     6   ar
    71   184   185    1
    72   184   183    1
    73   145   142    1
    74     6     5    1
    75   180   183    1
    76   180   181    1
    77   158   156    1
    78   144   143    2
    79   142   143    1
    80   142   141    1
    81   156   157    1
    82   156   153    1
    83   155   154    2
    84   154   153    1
    85     5     2    1
    86   181   182    2
    87   140   139    1
    88   137   139   ar
    89   137   135   ar
    90   139   138   ar
    91   135   134   ar
    92   157   159    1
    93   196   194   ar
    94   196   195   ar
    95     2     1    1
    96     2     3    1
    97   153   152    1
    98   138   136   ar
    99   187   188    1
   100   134   136   ar
   101   134   133    1
   102   194   192   ar
   103   133   130    1
   104   195   193   ar
   105   132   131    2
   106   128   127    1
   107   127   124    1
   108    41    39   ar
   109    41    43   ar
   110   192   193   ar
   111   192   191    1
   112    25    24    1
   113    24    21    1
   114    39    38   ar
   115     3     4    2
   116   188   191    1
   117   188   189    1
   118   131   130    1
   119   130   129    1
   120   113   111   ar
   121   113   114   ar
   122    43    42   ar
   123    18    17    1
   124   111   110   ar
   125    38    37    1
   126    38    40   ar
   127   124   125    1
   128   124   123    1
   129   114   112   ar
   130   189   190    2
   131   125   126    2
   132    21    20    1
   133    21    22    1
   134    37    34    1
   135    42    40   ar
   136    20    15   am
   137   110   112   ar
   138   110   109    1
   139    13    14    1
   140    17    19    1
   141    17    14    1
   142   123   117   am
   143    15    14    1
   144    15    16    2
   145    32    31    1
   146    32    26    1
   147    22    23    2
   148    22    26   am
   149   109   106    1
   150    96    95   ar
   151    31    30    1
   152    34    33    1
   153    34    35    1
   154   108   107    2
   155   106   107    1
   156   106   105    1
   157    33    28   am
   158   104   102    1
   159    26    27    1
   160    35    36    2
   161    85    84    2
   162   117   118    2
   163   117   116    1
   164   101   100    2
   165    95    97   ar
   166    95    94    1
   167   105   100   am
   168   100    99    1
   169    28    27    1
   170    28    29    2
   171    93    92    2
   172   102   103    1
   173   102    99    1
   174   121   119    1
   175    27    30    1
   176   119   116    1
   177   119   120    1
   178    91    94    1
   179    91    92    1
   180    91    90    1
   181   116   115    1
   182    84    90   am
   183    84    83    1
   184    86    87    1
   185    86    83    1
   186   202   201    1
   187    99    98    1
   188    87    88   ar
   189    87    89   ar
   190   203   201    1
   191   122   120    1
   192    83    82    1
   193   201   198    1
   194   200   199    2
   195   199   198    1
   196   198   197    1
