@<TRIPOS>MOLECULE
tmp/2pbkA00.pdb
 211 206 0 0 0
SMALL
GASTEIGER

@<TRIPOS>ATOM
      1  N         -3.3310   24.5100   22.6330 N.3     9  VAL9       -0.1245
      2  CA        -3.2320   24.5680   24.0810 C.3     9  VAL9        0.1561
      3  C         -3.8650   25.8620   24.6520 C.2     9  VAL9        0.2260
      4  O         -4.0480   25.9910   25.8600 O.2     9  VAL9       -0.2867
      5  CB        -1.7710   24.3560   24.5520 C.3     9  VAL9        0.0252
      6  CG1       -1.3120   22.9570   24.2730 C.3     9  VAL9        0.0019
      7  CG2       -0.7920   25.3810   23.9180 C.3     9  VAL9        0.0019
      8  N         -5.9570   33.0580   36.2520 N.3    20  GLU20      -0.1231
      9  CA        -4.7010   32.2960   36.1780 C.3    20  GLU20       0.1699
     10  C         -4.4860   31.5290   34.8510 C.2    20  GLU20       0.2592
     11  O         -3.3470   31.1770   34.5290 O.2    20  GLU20      -0.2718
     12  CB        -4.5510   31.3490   37.3710 C.3    20  GLU20       0.0402
     13  CG        -5.4790   30.1490   37.3660 C.3    20  GLU20       0.1161
     14  CD        -5.0750   29.0930   38.3800 C.2    20  GLU20       0.3649
     15  OE1       -4.4140   29.4360   39.3900 O.co2  20  GLU20      -0.2457
     16  OE2       -5.4200   27.9140   38.1730 O.co2  20  GLU20      -0.2457
     17  N         -5.5650   31.2910   34.0970 N.am   21  LEU21      -0.1980
     18  CA        -5.4950   30.5840   32.8160 C.3    21  LEU21       0.1596
     19  C         -5.3280   31.5290   31.6100 C.2    21  LEU21       0.2287
     20  O         -5.1750   31.0730   30.4680 O.2    21  LEU21      -0.2864
     21  CB        -6.7780   29.7670   32.6040 C.3    21  LEU21       0.0297
     22  CG        -6.9260   28.5500   33.5160 C.3    21  LEU21       0.0022
     23  CD1       -8.2790   27.8930   33.2370 C.3    21  LEU21       0.0001
     24  CD2       -5.7760   27.5710   33.3020 C.3    21  LEU21       0.0001
     25  N         -3.9110   33.7490   28.8050 N.3    23  LEU23      -0.1245
     26  CA        -2.6790   33.9410   28.0210 C.3    23  LEU23       0.1561
     27  C         -2.8930   35.1060   27.0350 C.2    23  LEU23       0.2260
     28  O         -3.6380   34.9990   26.0880 O.2    23  LEU23      -0.2867
     29  CB        -2.3020   32.6520   27.3020 C.3    23  LEU23       0.0270
     30  CG        -1.8510   31.4910   28.2140 C.3    23  LEU23       0.0019
     31  CD1       -1.8760   30.1520   27.5240 C.3    23  LEU23       0.0001
     32  CD2       -0.4820   31.7570   28.8190 C.3    23  LEU23       0.0001
     33  N         -0.1450   15.7720   33.9620 N.3    44  HIS44      -0.1241
     34  CA         0.8320   16.4280   34.8050 C.3    44  HIS44       0.1621
     35  C          1.4760   15.5320   35.8730 C.2    44  HIS44       0.2264
     36  O          2.0490   16.0420   36.8520 O.2    44  HIS44      -0.2867
     37  CB         0.1940   17.6840   35.4200 C.3    44  HIS44       0.0745
     38  CG        -0.4100   18.5990   34.4010 C.ar   44  HIS44       0.0817
     39  ND1        0.3480   19.3210   33.5030 N.ar   44  HIS44      -0.2268
     40  CD2       -1.7010   18.9150   34.1420 C.ar   44  HIS44       0.1154
     41  CE1       -0.4570   20.0030   32.7010 C.ar   44  HIS44       0.1986
     42  NE2       -1.7030   19.7870   33.0840 N.ar   44  HIS44      -0.2212
     43  N         -5.4640   18.2760   25.6200 N.3   111  LEU111     -0.1231
     44  CA        -4.1170   18.8420   25.8060 C.3   111  LEU111      0.1693
     45  C         -4.1550   19.8820   26.9070 C.2   111  LEU111      0.2593
     46  O         -5.1370   20.6700   27.0260 O.2   111  LEU111     -0.2718
     47  CB        -3.6120   19.4850   24.5120 C.3   111  LEU111      0.0284
     48  CG        -3.4750   18.6600   23.2390 C.3   111  LEU111      0.0019
     49  CD1       -2.9550   19.5290   22.0540 C.3   111  LEU111      0.0001
     50  CD2       -2.5540   17.5150   23.4470 C.3   111  LEU111      0.0001
     51  N         -3.0790   19.9430   27.6970 N.am  112  SER112     -0.1938
     52  CA        -3.0060   20.9380   28.7280 C.3   112  SER112      0.2055
     53  C         -1.5820   21.4110   28.8980 C.2   112  SER112      0.2643
     54  O         -0.7000   20.6350   29.2310 O.2   112  SER112     -0.2714
     55  CB        -3.4360   20.3510   30.0550 C.3   112  SER112      0.2130
     56  OG        -3.4280   21.3520   31.0920 O.3   112  SER112     -0.2179
     57  N         -1.3980   22.7120   28.7690 N.am  113  LEU113     -0.1963
     58  CA        -0.1380   23.3490   28.9430 C.3   113  LEU113      0.1728
     59  C          0.1730   23.5380   30.4100 C.2   113  LEU113      0.2617
     60  O         -0.7410   23.7760   31.2420 O.2   113  LEU113     -0.2715
     61  CB        -0.2480   24.7380   28.3250 C.3   113  LEU113      0.0311
     62  CG         0.9790   25.5610   28.0660 C.3   113  LEU113      0.0022
     63  CD1        1.9920   24.7900   27.2330 C.3   113  LEU113      0.0001
     64  CD2        0.5550   26.8810   27.3870 C.3   113  LEU113      0.0001
     65  N          1.4430   23.4100   30.7510 N.am  114  SER114     -0.1936
     66  CA         1.9570   23.9530   31.9910 C.3   114  SER114      0.2055
     67  C          2.8450   25.1410   31.6570 C.2   114  SER114      0.2644
     68  O          3.8340   24.9940   30.9250 O.2   114  SER114     -0.2714
     69  CB         2.7730   22.8910   32.7300 C.3   114  SER114      0.2130
     70  OG         3.3370   23.4190   33.9010 O.3   114  SER114     -0.2179
     71  N          2.4870   26.3040   32.2010 N.am  115  SER115     -0.1935
     72  CA         3.1910   27.5380   31.8900 C.3   115  SER115      0.2055
     73  C          3.2390   28.4330   33.1130 C.2   115  SER115      0.2643
     74  O          2.4800   28.2680   34.0570 O.2   115  SER115     -0.2714
     75  CB         2.5620   28.2650   30.6780 C.3   115  SER115      0.2130
     76  OG         1.1630   28.4820   30.8180 O.3   115  SER115     -0.2179
     77  N          4.1640   29.3750   33.0850 N.am  116  ILE116     -0.1963
     78  CA         4.4170   30.2450   34.2080 C.3   116  ILE116      0.1727
     79  C          3.1880   31.1220   34.4750 C.2   116  ILE116      0.2616
     80  O          2.4650   31.5150   33.5370 O.2   116  ILE116     -0.2715
     81  CB         5.6800   31.0730   33.9340 C.3   116  ILE116      0.0290
     82  CG1        6.3230   31.5480   35.2350 C.3   116  ILE116      0.0022
     83  CG2        5.3840   32.2220   32.9840 C.3   116  ILE116      0.0023
     84  CD1        7.6950   32.1970   35.0130 C.3   116  ILE116      0.0001
     85  N          2.9410   31.4170   35.7540 N.am  117  HIS117     -0.1960
     86  CA         1.7580   32.2080   36.1450 C.3   117  HIS117      0.1772
     87  C          1.7330   33.5160   35.3560 C.2   117  HIS117      0.2462
     88  O          2.7740   34.1450   35.1590 O.2   117  HIS117     -0.2730
     89  CB         1.7530   32.4980   37.6440 C.3   117  HIS117      0.0785
     90  CG         0.4340   32.9960   38.1570 C.ar  117  HIS117      0.0821
     91  ND1       -0.0340   34.2720   37.9060 N.ar  117  HIS117     -0.2267
     92  CD2       -0.5140   32.3900   38.9140 C.ar  117  HIS117      0.1154
     93  CE1       -1.2130   34.4280   38.4830 C.ar  117  HIS117      0.1986
     94  NE2       -1.5260   33.3030   39.1030 N.ar  117  HIS117     -0.2212
     95  N          0.5530   33.9070   34.8500 N.am  118  PRO118     -0.2716
     96  CA         0.5410   35.0600   33.9350 C.3   118  PRO118      0.1536
     97  C          0.8050   36.4180   34.5620 C.2   118  PRO118      0.2598
     98  O          0.9990   37.3830   33.8170 O.2   118  PRO118     -0.2715
     99  CB        -0.8570   35.0040   33.2910 C.3   118  PRO118      0.0310
    100  CG        -1.6960   34.1950   34.2200 C.3   118  PRO118      0.0237
    101  CD        -0.7790   33.2920   35.0000 C.3   118  PRO118      0.0939
    102  N          0.8390   36.5010   35.8950 N.am  119  ARG119     -0.1964
    103  CA         1.2800   37.7120   36.5660 C.3   119  ARG119      0.1729
    104  C          2.7340   37.9290   36.1930 C.2   119  ARG119      0.2616
    105  O          3.1980   39.0690   36.0690 O.2   119  ARG119     -0.2715
    106  CB         1.1140   37.6180   38.1010 C.3   119  ARG119      0.0348
    107  CG         2.1910   36.7910   38.8540 C.3   119  ARG119      0.0492
    108  CD         2.1260   36.9580   40.3730 C.3   119  ARG119      0.2205
    109  NE         1.4140   35.8880   41.0790 N.pl3 119  ARG119     -0.0865
    110  CZ         1.9010   34.6660   41.3040 C.cat 119  ARG119      0.5346
    111  NH1        3.1080   34.3090   40.8680 N.pl3 119  ARG119      0.1354
    112  NH2        1.1640   33.7830   41.9660 N.pl3 119  ARG119      0.1354
    113  N          3.4540   36.8280   35.9950 N.am  120  GLU120     -0.1977
    114  CA         4.8680   36.9120   35.6700 C.3   120  GLU120      0.1602
    115  C          5.1460   37.2130   34.1940 C.2   120  GLU120      0.2287
    116  O          6.2310   37.6770   33.8490 O.2   120  GLU120     -0.2864
    117  CB         5.5620   35.6360   36.1070 C.3   120  GLU120      0.0415
    118  CG         7.0550   35.7400   36.0650 C.3   120  GLU120      0.1163
    119  CD         7.7190   35.0910   37.2480 C.2   120  GLU120      0.3649
    120  OE1        7.2500   34.0150   37.6880 O.co2 120  GLU120     -0.2457
    121  OE2        8.7130   35.6700   37.7350 O.co2 120  GLU120     -0.2457
    122  N         10.8740   34.5920   35.5210 N.3   126  SER126     -0.1202
    123  CA        11.9470   34.0200   36.3500 C.3   126  SER126      0.2020
    124  C         12.5280   32.6980   35.8410 C.2   126  SER126      0.2619
    125  O         13.5740   32.2580   36.3250 O.2   126  SER126     -0.2717
    126  CB        11.4260   33.7820   37.7730 C.3   126  SER126      0.2103
    127  OG        11.1290   35.0020   38.4200 O.3   126  SER126     -0.2182
    128  N         11.8370   32.0530   34.9040 N.am  127  GLY127     -0.1942
    129  CA        12.2950   30.7970   34.2900 C.3   127  GLY127      0.1998
    130  C         11.6540   30.6510   32.9200 C.2   127  GLY127      0.2481
    131  O         11.0910   31.6230   32.4150 O.2   127  GLY127     -0.2729
    132  N         11.7350   29.4540   32.2970 N.am  128  PRO128     -0.2715
    133  CA        11.0490   29.3230   30.9970 C.3   128  PRO128      0.1536
    134  C          9.5560   29.5350   31.1390 C.2   128  PRO128      0.2598
    135  O          8.9650   29.1360   32.1360 O.2   128  PRO128     -0.2715
    136  CB        11.3700   27.8980   30.5370 C.3   128  PRO128      0.0310
    137  CG        12.4730   27.4140   31.4540 C.3   128  PRO128      0.0237
    138  CD        12.4140   28.2130   32.7070 C.3   128  PRO128      0.0939
    139  N          8.9470   30.1820   30.1540 N.am  129  VAL129     -0.1978
    140  CA         7.5230   30.4380   30.2030 C.3   129  VAL129      0.1596
    141  C          6.7200   29.1710   29.9970 C.2   129  VAL129      0.2287
    142  O          5.6930   28.9540   30.6580 O.2   129  VAL129     -0.2864
    143  CB         7.1330   31.5270   29.1740 C.3   129  VAL129      0.0276
    144  CG1        5.6210   31.5760   28.9650 C.3   129  VAL129      0.0022
    145  CG2        7.6480   32.8830   29.6550 C.3   129  VAL129      0.0022
    146  N          6.6160   25.1010   30.0600 N.3   131  GLN131     -0.1231
    147  CA         7.2970   23.9810   30.7350 C.3   131  GLN131      0.1698
    148  C          7.1150   22.6040   30.0630 C.2   131  GLN131      0.2592
    149  O          8.1020   21.9140   29.7610 O.2   131  GLN131     -0.2718
    150  CB         6.8140   23.9330   32.1700 C.3   131  GLN131      0.0381
    151  CG         7.4710   22.9040   33.0280 C.3   131  GLN131      0.0905
    152  CD         6.9900   22.9960   34.4570 C.2   131  GLN131      0.2608
    153  OE1        5.7950   22.8810   34.7220 O.2   131  GLN131     -0.2717
    154  NE2        7.9170   23.2340   35.3850 N.am  131  GLN131     -0.0878
    155  N          5.8640   22.2220   29.8460 N.am  132  HIS132     -0.1976
    156  CA         5.5220   20.9540   29.2250 C.3   132  HIS132      0.1656
    157  C          4.0900   20.9720   28.7540 C.2   132  HIS132      0.2291
    158  O          3.3290   21.9170   29.0490 O.2   132  HIS132     -0.2864
    159  CB         5.7290   19.7400   30.1550 C.3   132  HIS132      0.0771
    160  CG         4.9030   19.7430   31.4060 C.ar  132  HIS132      0.0820
    161  ND1        3.5630   19.4210   31.4320 N.ar  132  HIS132     -0.2267
    162  CD2        5.2530   19.9810   32.6900 C.ar  132  HIS132      0.1154
    163  CE1        3.1280   19.4670   32.6820 C.ar  132  HIS132      0.1986
    164  NE2        4.1310   19.8250   33.4590 N.ar  132  HIS132     -0.2212
    165  N         -4.3920   14.6660   28.5220 N.3   136  CYS136     -0.1235
    166  CA        -5.3580   14.5760   29.6520 C.3   136  CYS136      0.1677
    167  C         -6.7800   14.2050   29.2390 C.2   136  CYS136      0.2270
    168  O         -7.1150   14.1550   28.0680 O.2   136  CYS136     -0.2867
    169  CB        -5.3430   15.8860   30.4330 C.3   136  CYS136      0.0956
    170  SG        -5.9010   17.3050   29.5000 S.3   136  CYS136     -0.0801
    171  N         -9.4930   15.8320   29.8730 N.3   138  LEU138     -0.1231
    172  CA       -10.2360   17.0200   29.4640 C.3   138  LEU138      0.1693
    173  C         -9.4220   18.2430   29.8830 C.2   138  LEU138      0.2593
    174  O         -9.0590   18.3720   31.0600 O.2   138  LEU138     -0.2718
    175  CB       -11.5960   17.1050   30.1710 C.3   138  LEU138      0.0284
    176  CG       -12.4340   18.3460   29.8850 C.3   138  LEU138      0.0019
    177  CD1      -12.8760   18.3420   28.4530 C.3   138  LEU138      0.0001
    178  CD2      -13.6330   18.4270   30.8480 C.3   138  LEU138      0.0001
    179  N         -9.1970   19.1630   28.9530 N.am  139  GLY139     -0.1942
    180  CA        -8.4590   20.3850   29.2870 C.3   139  GLY139      0.2014
    181  C         -9.2110   21.4140   30.1190 C.2   139  GLY139      0.2639
    182  O        -10.4310   21.5060   30.0720 O.2   139  GLY139     -0.2714
    183  N         -8.4980   22.2190   30.8870 N.am  140  ARG140     -0.1963
    184  CA        -9.1630   23.2990   31.6280 C.3   140  ARG140      0.1729
    185  C         -9.4650   24.4900   30.7230 C.2   140  ARG140      0.2616
    186  O        -10.3810   25.2700   31.0030 O.2   140  ARG140     -0.2715
    187  CB        -8.3300   23.7850   32.8100 C.3   140  ARG140      0.0348
    188  CG        -8.2840   22.8380   33.9890 C.3   140  ARG140      0.0492
    189  CD        -7.2960   23.3480   35.0410 C.3   140  ARG140      0.2205
    190  NE        -7.7330   24.6130   35.6050 N.pl3 140  ARG140     -0.0865
    191  CZ        -6.9860   25.4470   36.3280 C.cat 140  ARG140      0.5346
    192  NH1       -5.7040   25.1970   36.5850 N.pl3 140  ARG140      0.1354
    193  NH2       -7.5340   26.5590   36.7870 N.pl3 140  ARG140      0.1354
    194  N         -8.6290   24.6920   29.7130 N.am  141  ARG141     -0.1977
    195  CA        -8.8960   25.6940   28.6710 C.3   141  ARG141      0.1597
    196  C         -9.7740   25.0750   27.5920 C.2   141  ARG141      0.2287
    197  O         -9.5570   23.9390   27.2140 O.2   141  ARG141     -0.2864
    198  CB        -7.5810   26.1840   28.0640 C.3   141  ARG141      0.0334
    199  CG        -6.7500   26.9930   29.0390 C.3   141  ARG141      0.0492
    200  CD        -5.5740   27.6930   28.3760 C.3   141  ARG141      0.2205
    201  NE        -4.7640   28.4820   29.3060 N.pl3 141  ARG141     -0.0865
    202  CZ        -3.6580   28.0420   29.9080 C.cat 141  ARG141      0.5346
    203  NH1       -3.1930   26.8390   29.6410 N.pl3 141  ARG141      0.1354
    204  NH2       -2.9800   28.8250   30.7380 N.pl3 141  ARG141      0.1354
    205  N         -9.1830   22.6930   23.4960 N.3   144  THR144     -0.1218
    206  CA        -7.8540   22.0860   23.5880 C.3   144  THR144      0.1862
    207  C         -7.8400   20.5640   23.3320 C.2   144  THR144      0.2287
    208  O         -7.0390   19.8310   23.9160 O.2   144  THR144     -0.2866
    209  CB        -7.2110   22.3860   24.9660 C.3   144  THR144      0.1770
    210  OG1       -8.0960   21.9630   26.0180 O.3   144  THR144     -0.2211
    211  CG2       -6.9300   23.8640   25.1210 C.3   144  THR144      0.0375
@<TRIPOS>BOND
     1    49    48    1
     2     1     2    1
     3    48    50    1
     4    48    47    1
     5   207   206    1
     6   207   208    2
     7   205   206    1
     8   206   209    1
     9     7     5    1
    10     2     5    1
    11     2     3    1
    12     6     5    1
    13    47    44    1
    14     3     4    2
    15   209   211    1
    16   209   210    1
    17    43    44    1
    18    44    45    1
    19    28    27    2
    20    45    46    2
    21    45    51   am
    22    27    26    1
    23   197   196    2
    24    63    62    1
    25    29    26    1
    26    29    30    1
    27    64    62    1
    28    31    30    1
    29   196   195    1
    30    51    52    1
    31    26    25    1
    32   198   195    1
    33   198   199    1
    34    62    61    1
    35   168   167    2
    36    30    32    1
    37    61    58    1
    38   200   199    1
    39   200   201    1
    40   177   176    1
    41   165   166    1
    42   195   194    1
    43    52    53    1
    44    52    55    1
    45   157   158    2
    46   157   156    1
    47    57    53   am
    48    57    58    1
    49    53    54    2
    50    58    59    1
    51   179   180    1
    52   179   173   am
    53   144   143    1
    54   143   145    1
    55   143   140    1
    56   156   155    1
    57   156   159    1
    58   167   166    1
    59   180   181    1
    60   201   202    2
    61   172   171    1
    62   172   173    1
    63   172   175    1
    64   170   169    1
    65   203   202    1
    66   166   169    1
    67   194   185   am
    68   149   148    2
    69   155   148   am
    70   173   174    2
    71   176   175    1
    72   176   178    1
    73   202   204    1
    74   141   140    1
    75   141   142    2
    76    55    56    1
    77   146   147    1
    78   148   147    1
    79   182   181    2
    80   181   183   am
    81   139   140    1
    82   139   134   am
    83   159   160    1
    84    59    65   am
    85    59    60    2
    86    20    19    2
    87   136   133    1
    88   136   137    1
    89    75    76    1
    90    75    72    1
    91   185   186    2
    92   185   184    1
    93   147   150    1
    94    65    66    1
    95   183   184    1
    96    68    67    2
    97   133   134    1
    98   133   132    1
    99   134   135    2
   100   160   161   ar
   101   160   162   ar
   102   161   163   ar
   103   137   138    1
   104    19    18    1
   105   184   187    1
   106    67    66    1
   107    67    71   am
   108    72    71    1
   109    72    73    1
   110    66    69    1
   111   150   151    1
   112   132   138    1
   113   132   130   am
   114   131   130    2
   115    21    18    1
   116    21    22    1
   117   163   164   ar
   118   162   164   ar
   119    41    42   ar
   120    41    39   ar
   121    69    70    1
   122   187   188    1
   123    18    17    1
   124   130   129    1
   125    83    81    1
   126   151   152    1
   127    42    40   ar
   128    77    73   am
   129    77    78    1
   130    73    74    2
   131    23    22    1
   132    99    96    1
   133    99   100    1
   134    24    22    1
   135    39    38   ar
   136    80    79    2
   137    98    97    2
   138   116   115    2
   139    81    78    1
   140    81    82    1
   141    96    97    1
   142    96    95    1
   143    33    34    1
   144   188   189    1
   145    17    10   am
   146    40    38   ar
   147   115   114    1
   148    78    79    1
   149   100   101    1
   150   129   128    1
   151    38    37    1
   152   152   153    2
   153   152   154   am
   154    79    85   am
   155    11    10    2
   156    97   102   am
   157    34    37    1
   158    34    35    1
   159    95   101    1
   160    95    87   am
   161    10     9    1
   162   128   124   am
   163    84    82    1
   164   189   190    1
   165    88    87    2
   166    87    86    1
   167   122   123    1
   168   190   191    2
   169   114   113    1
   170   114   117    1
   171    85    86    1
   172   124   125    2
   173   124   123    1
   174    35    36    2
   175   102   103    1
   176   113   104   am
   177   118   117    1
   178   118   119    1
   179   105   104    2
   180    86    89    1
   181     9     8    1
   182     9    12    1
   183   104   103    1
   184   191   192    1
   185   191   193    1
   186   123   126    1
   187   103   106    1
   188   119   120   ar
   189   119   121   ar
   190    13    12    1
   191    13    14    1
   192    89    90    1
   193   126   127    1
   194    91    90   ar
   195    91    93   ar
   196   106   107    1
   197    90    92   ar
   198    16    14   ar
   199    14    15   ar
   200    93    94   ar
   201   107   108    1
   202    92    94   ar
   203   108   109    1
   204   111   110    1
   205   109   110    2
   206   110   112    1
