@<TRIPOS>MOLECULE
tmp/2pbzA00.pdb
 177 169 0 0 0
SMALL
GASTEIGER

@<TRIPOS>ATOM
      1  N         54.8470   32.8570   39.2840 N.3   110  VAL110     -0.1245
      2  CA        56.2460   32.9040   38.8910 C.3   110  VAL110      0.1561
      3  C         57.0060   32.2350   40.0170 C.2   110  VAL110      0.2260
      4  O         56.6880   32.4380   41.1890 O.2   110  VAL110     -0.2867
      5  CB        56.7610   34.3340   38.7460 C.3   110  VAL110      0.0252
      6  CG1       56.0690   34.9940   37.5810 C.3   110  VAL110      0.0019
      7  CG2       56.5080   35.1130   40.0280 C.3   110  VAL110      0.0019
      8  N         64.3770   39.1730   38.6420 N.3   125  PHE125     -0.1241
      9  CA        63.5860   40.3100   39.0770 C.3   125  PHE125      0.1605
     10  C         63.5460   40.2850   40.6040 C.2   125  PHE125      0.2264
     11  O         63.3810   39.2270   41.1980 O.2   125  PHE125     -0.2867
     12  CB        62.1600   40.2020   38.5160 C.3   125  PHE125      0.0534
     13  CG        61.3400   41.4620   38.6760 C.ar  125  PHE125     -0.0203
     14  CD1       61.6040   42.5940   37.8930 C.ar  125  PHE125     -0.0042
     15  CD2       60.3140   41.5240   39.6260 C.ar  125  PHE125     -0.0042
     16  CE1       60.8610   43.7700   38.0550 C.ar  125  PHE125     -0.0003
     17  CE2       59.5600   42.6960   39.8020 C.ar  125  PHE125     -0.0003
     18  CZ        59.8370   43.8230   39.0130 C.ar  125  PHE125     -0.0000
     19  N         61.4480   41.7260   43.7090 N.3   127  ARG127     -0.1231
     20  CA        60.1940   42.3880   44.0590 C.3   127  ARG127      0.1694
     21  C         60.2260   43.0670   45.4190 C.2   127  ARG127      0.2591
     22  O         61.0720   42.7510   46.2450 O.2   127  ARG127     -0.2718
     23  CB        59.0390   41.3820   44.0180 C.3   127  ARG127      0.0321
     24  CG        57.6660   42.0340   44.0810 C.3   127  ARG127      0.0489
     25  CD        57.0200   42.1260   42.7050 C.3   127  ARG127      0.2205
     26  NE        56.6730   40.8000   42.2180 N.pl3 127  ARG127     -0.0865
     27  CZ        55.8620   39.9620   42.8650 C.cat 127  ARG127      0.5346
     28  NH1       55.3210   40.3290   44.0260 N.pl3 127  ARG127      0.1354
     29  NH2       55.5940   38.7490   42.3560 N.pl3 127  ARG127      0.1354
     30  N         59.2910   43.9980   45.6310 N.am  128  ILE128     -0.1980
     31  CA        59.1550   44.7800   46.8790 C.3   128  ILE128      0.1595
     32  C         60.4890   45.3120   47.3950 C.2   128  ILE128      0.2287
     33  O         61.1760   46.0800   46.7080 O.2   128  ILE128     -0.2864
     34  CB        58.4880   43.9590   48.0180 C.3   128  ILE128      0.0276
     35  CG1       57.0060   43.7140   47.7000 C.3   128  ILE128      0.0022
     36  CG2       58.6210   44.7010   49.3570 C.3   128  ILE128      0.0022
     37  CD1       56.1970   43.2160   48.8960 C.3   128  ILE128      0.0001
     38  N         61.3880   48.0210   42.6390 N.3   129  GLU129     -0.1245
     39  CA        61.6770   46.7020   42.0840 C.3   129  GLU129      0.1567
     40  C         63.1240   46.7160   41.5860 C.2   129  GLU129      0.2260
     41  O         64.0270   47.0880   42.3300 O.2   129  GLU129     -0.2867
     42  CB        60.7250   46.3650   40.9210 C.3   129  GLU129      0.0388
     43  CG        59.3240   46.9720   41.0410 C.3   129  GLU129      0.1160
     44  CD        58.3890   46.2170   41.9690 C.2   129  GLU129      0.3649
     45  OE1       58.8330   45.7480   43.0430 O.co2 129  GLU129     -0.2457
     46  OE2       57.1910   46.1090   41.6210 O.co2 129  GLU129     -0.2457
     47  N         62.7350   36.6640   41.7280 N.3   143  GLU143     -0.1231
     48  CA        61.9730   35.8500   40.7910 C.3   143  GLU143      0.1699
     49  C         62.6730   35.6930   39.4640 C.2   143  GLU143      0.2592
     50  O         63.5020   36.5220   39.0820 O.2   143  GLU143     -0.2718
     51  CB        60.5740   36.4530   40.5830 C.3   143  GLU143      0.0402
     52  CG        59.8920   36.8640   41.8830 C.3   143  GLU143      0.1161
     53  CD        58.4480   37.3080   41.7000 C.2   143  GLU143      0.3649
     54  OE1       58.1720   38.1770   40.8310 O.co2 143  GLU143     -0.2457
     55  OE2       57.5840   36.7900   42.4490 O.co2 143  GLU143     -0.2457
     56  N         62.3370   34.6050   38.7750 N.am  144  ARG144     -0.1966
     57  CA        62.8930   34.2920   37.4640 C.3   144  ARG144      0.1729
     58  C         62.4920   35.4380   36.5440 C.2   144  ARG144      0.2616
     59  O         61.3410   35.8690   36.5600 O.2   144  ARG144     -0.2715
     60  CB        62.2860   32.9790   36.9600 C.3   144  ARG144      0.0348
     61  CG        62.9060   32.4040   35.6880 C.3   144  ARG144      0.0492
     62  CD        64.3030   31.8470   35.9630 C.3   144  ARG144      0.2205
     63  NE        64.8240   31.0560   34.8430 N.pl3 144  ARG144     -0.0865
     64  CZ        65.1370   31.5480   33.6420 C.cat 144  ARG144      0.5346
     65  NH1       64.9880   32.8500   33.3840 N.pl3 144  ARG144      0.1354
     66  NH2       65.5990   30.7330   32.6910 N.pl3 144  ARG144      0.1354
     67  N         63.4340   35.9510   35.7610 N.am  145  PHE145     -0.1960
     68  CA        63.1120   37.0350   34.8490 C.3   145  PHE145      0.1771
     69  C         62.2790   36.4860   33.6960 C.2   145  PHE145      0.2619
     70  O         62.6500   35.4820   33.0740 O.2   145  PHE145     -0.2715
     71  CB        64.3700   37.6480   34.2740 C.3   145  PHE145      0.0574
     72  CG        64.1070   38.8340   33.3860 C.ar  145  PHE145     -0.0200
     73  CD1       64.0920   40.1240   33.9200 C.ar  145  PHE145     -0.0042
     74  CD2       63.8850   38.6680   32.0160 C.ar  145  PHE145     -0.0042
     75  CE1       63.8670   41.2420   33.1090 C.ar  145  PHE145     -0.0003
     76  CE2       63.6580   39.7830   31.1950 C.ar  145  PHE145     -0.0003
     77  CZ        63.6520   41.0760   31.7470 C.ar  145  PHE145     -0.0000
     78  N         61.1640   37.1400   33.3970 N.am  146  ILE146     -0.1977
     79  CA        60.3110   36.6870   32.3060 C.3   146  ILE146      0.1596
     80  C         59.9930   37.8380   31.3640 C.2   146  ILE146      0.2287
     81  O         59.3800   38.8280   31.7680 O.2   146  ILE146     -0.2864
     82  CB        58.9830   36.1020   32.8280 C.3   146  ILE146      0.0276
     83  CG1       59.2580   34.9270   33.7760 C.3   146  ILE146      0.0022
     84  CG2       58.1310   35.6510   31.6600 C.3   146  ILE146      0.0022
     85  CD1       58.0220   34.4510   34.5360 C.3   146  ILE146      0.0001
     86  N         52.9910   42.0330   30.0620 N.3   150  TYR150     -0.1241
     87  CA        52.4120   41.9050   31.3800 C.3   150  TYR150      0.1605
     88  C         50.9770   42.3850   31.3080 C.2   150  TYR150      0.2264
     89  O         50.6920   43.5290   30.9510 O.2   150  TYR150     -0.2867
     90  CB        53.2440   42.6890   32.3950 C.3   150  TYR150      0.0534
     91  CG        54.4570   41.8870   32.7850 C.ar  150  TYR150     -0.0201
     92  CD1       55.4850   41.6580   31.8690 C.ar  150  TYR150     -0.0009
     93  CD2       54.5150   41.2290   34.0160 C.ar  150  TYR150     -0.0009
     94  CE1       56.5320   40.7860   32.1610 C.ar  150  TYR150      0.0417
     95  CE2       55.5570   40.3530   34.3140 C.ar  150  TYR150      0.0417
     96  CZ        56.5580   40.1300   33.3840 C.ar  150  TYR150      0.1957
     97  OH        57.5580   39.2280   33.6600 O.3   150  TYR150     -0.2866
     98  N         47.1220   42.7580   33.0750 N.3   152  TYR152     -0.1241
     99  CA        46.4230   42.9690   34.3220 C.3   152  TYR152      0.1605
    100  C         44.9310   42.7710   34.0810 C.2   152  TYR152      0.2264
    101  O         44.2540   43.6250   33.5150 O.2   152  TYR152     -0.2867
    102  CB        46.7590   44.3700   34.8510 C.3   152  TYR152      0.0534
    103  CG        48.2460   44.5560   35.0270 C.ar  152  TYR152     -0.0201
    104  CD1       49.0830   44.6780   33.9180 C.ar  152  TYR152     -0.0009
    105  CD2       48.8360   44.4890   36.2870 C.ar  152  TYR152     -0.0009
    106  CE1       50.4760   44.7110   34.0580 C.ar  152  TYR152      0.0417
    107  CE2       50.2340   44.5280   36.4400 C.ar  152  TYR152      0.0417
    108  CZ        51.0490   44.6320   35.3200 C.ar  152  TYR152      0.1957
    109  OH        52.4230   44.6210   35.4570 O.3   152  TYR152     -0.2866
    110  N         50.4040   48.0750   31.6370 N.3   172  ARG172     -0.1245
    111  CA        51.0370   49.2310   32.2710 C.3   172  ARG172      0.1563
    112  C         51.9830   50.0260   31.3650 C.2   172  ARG172      0.2260
    113  O         52.6440   49.4730   30.4720 O.2   172  ARG172     -0.2867
    114  CB        51.8450   48.8010   33.5100 C.3   172  ARG172      0.0307
    115  CG        51.1400   47.8840   34.4940 C.3   172  ARG172      0.0489
    116  CD        50.3180   48.6290   35.5250 C.3   172  ARG172      0.2205
    117  NE        48.9420   48.1530   35.5540 N.pl3 172  ARG172     -0.0865
    118  CZ        48.3520   47.6140   36.6130 C.cat 172  ARG172      0.5346
    119  NH1       49.0220   47.4710   37.7510 N.pl3 172  ARG172      0.1354
    120  NH2       47.0890   47.2320   36.5250 N.pl3 172  ARG172      0.1354
    121  N         55.1690   51.9390   31.7600 N.3   174  LEU174     -0.1245
    122  CA        56.2760   52.1040   32.6940 C.3   174  LEU174      0.1561
    123  C         57.2980   53.0950   32.1930 C.2   174  LEU174      0.2260
    124  O         57.3120   53.4320   31.0040 O.2   174  LEU174     -0.2867
    125  CB        56.9540   50.7490   32.9280 C.3   174  LEU174      0.0270
    126  CG        56.3660   49.8420   34.0160 C.3   174  LEU174      0.0019
    127  CD1       54.8550   49.8170   33.9380 C.3   174  LEU174      0.0001
    128  CD2       56.9490   48.4500   33.8550 C.3   174  LEU174      0.0001
    129  N         60.6280   50.3970   37.0970 N.3   189  TYR189     -0.1241
    130  CA        59.3640   49.8640   36.6190 C.3   189  TYR189      0.1605
    131  C         58.1430   50.5650   37.1770 C.2   189  TYR189      0.2264
    132  O         57.0520   50.0000   37.2010 O.2   189  TYR189     -0.2867
    133  CB        59.2810   48.3690   36.8960 C.3   189  TYR189      0.0534
    134  CG        60.2110   47.5830   36.0120 C.ar  189  TYR189     -0.0201
    135  CD1       61.5870   47.5460   36.2660 C.ar  189  TYR189     -0.0009
    136  CD2       59.7310   46.9140   34.8890 C.ar  189  TYR189     -0.0009
    137  CE1       62.4560   46.8620   35.4150 C.ar  189  TYR189      0.0417
    138  CE2       60.5920   46.2240   34.0390 C.ar  189  TYR189      0.0417
    139  CZ        61.9470   46.1990   34.2980 C.ar  189  TYR189      0.1957
    140  OH        62.7790   45.5200   33.4280 O.3   189  TYR189     -0.2866
    141  N         54.9180   52.6850   37.3920 N.3   191  ILE191     -0.1245
    142  CA        53.8820   52.9520   36.3980 C.3   191  ILE191      0.1561
    143  C         53.5970   54.4470   36.2670 C.2   191  ILE191      0.2260
    144  O         53.5990   55.1950   37.2500 O.2   191  ILE191     -0.2867
    145  CB        52.5460   52.2170   36.7110 C.3   191  ILE191      0.0252
    146  CG1       51.7060   53.0580   37.6650 C.3   191  ILE191      0.0019
    147  CG2       52.8080   50.8360   37.3150 C.3   191  ILE191      0.0019
    148  CD1       50.2740   53.2850   37.1700 C.3   191  ILE191      0.0001
    149  N         47.3900   39.5890   38.3390 N.3   232  HIS232     -0.1241
    150  CA        48.4760   40.1030   37.5200 C.3   232  HIS232      0.1621
    151  C         49.2760   38.9470   36.9140 C.2   232  HIS232      0.2264
    152  O         49.6660   38.0140   37.6090 O.2   232  HIS232     -0.2867
    153  CB        49.3660   41.0250   38.3700 C.3   232  HIS232      0.0745
    154  CG        48.6240   42.1790   38.9770 C.ar  232  HIS232      0.0817
    155  ND1       49.1990   43.0540   39.8740 N.ar  232  HIS232     -0.2268
    156  CD2       47.3480   42.6030   38.8050 C.ar  232  HIS232      0.1154
    157  CE1       48.3110   43.9660   40.2290 C.ar  232  HIS232      0.1986
    158  NE2       47.1800   43.7130   39.5950 N.ar  232  HIS232     -0.2212
    159  N         51.9180   36.9240   39.0220 N.3   242  ILE242     -0.1245
    160  CA        52.9610   37.6810   39.6930 C.3   242  ILE242      0.1561
    161  C         52.3640   38.4530   40.8590 C.2   242  ILE242      0.2260
    162  O         53.0870   38.9200   41.7310 O.2   242  ILE242     -0.2867
    163  CB        53.6510   38.6930   38.7430 C.3   242  ILE242      0.0252
    164  CG1       52.6150   39.6480   38.1480 C.3   242  ILE242      0.0019
    165  CG2       54.4020   37.9560   37.6570 C.3   242  ILE242      0.0019
    166  CD1       53.2200   40.9130   37.5500 C.3   242  ILE242      0.0001
    167  N         41.5250   45.1360   45.4160 N.3   247  ARG247     -0.1245
    168  CA        40.5850   46.2510   45.2440 C.3   247  ARG247      0.1563
    169  C         40.6790   46.7730   43.8160 C.2   247  ARG247      0.2260
    170  O         41.4150   46.2120   43.0160 O.2   247  ARG247     -0.2867
    171  CB        40.8960   47.3660   46.2470 C.3   247  ARG247      0.0307
    172  CG        42.3740   47.5670   46.5200 C.3   247  ARG247      0.0489
    173  CD        43.0830   48.1280   45.3240 C.3   247  ARG247      0.2205
    174  NE        44.5220   48.1180   45.5090 N.pl3 247  ARG247     -0.0865
    175  CZ        45.3740   48.5030   44.5740 C.cat 247  ARG247      0.5346
    176  NH1       44.9180   48.9250   43.4010 N.pl3 247  ARG247      0.1354
    177  NH2       46.6790   48.4690   44.8100 N.pl3 247  ARG247      0.1354
@<TRIPOS>BOND
     1    86    87    1
     2   113   112    2
     3    89    88    2
     4   124   123    2
     5    76    77   ar
     6    76    74   ar
     7    88    87    1
     8    80    81    2
     9    80    79    1
    10   112   111    1
    11    87    90    1
    12   110   111    1
    13    84    82    1
    14    77    75   ar
    15   121   122    1
    16    92    94   ar
    17    92    91   ar
    18    74    72   ar
    19    94    96   ar
    20   123   122    1
    21   111   114    1
    22    79    82    1
    23    79    78    1
    24    90    91    1
    25    66    64    1
    26   122   125    1
    27    91    93   ar
    28    82    83    1
    29   125   126    1
    30    70    69    2
    31    98    99    1
    32    75    73   ar
    33    96    97    1
    34    96    95   ar
    35    65    64    1
    36    72    73   ar
    37    72    71    1
    38    78    69   am
    39   140   139    1
    40   114   115    1
    41   101   100    2
    42    64    63    2
    43    69    68    1
    44    83    85    1
    45   128   126    1
    46   104   106   ar
    47   104   103   ar
    48   127   126    1
    49    93    95   ar
    50   138   139   ar
    51   138   136   ar
    52   106   108   ar
    53   100    99    1
    54    71    68    1
    55   139   137   ar
    56    99   102    1
    57   115   116    1
    58    63    62    1
    59    68    67    1
    60   102   103    1
    61   136   134   ar
    62   103   105   ar
    63   108   109    1
    64   108   107   ar
    65   137   135   ar
    66   116   117    1
    67   117   118    2
    68    61    62    1
    69    61    60    1
    70    67    58   am
    71   134   135   ar
    72   134   133    1
    73   143   142    1
    74   143   144    2
    75   105   107   ar
    76   142   145    1
    77   142   141    1
    78   120   118    1
    79    58    59    2
    80    58    57    1
    81   118   119    1
    82   130   133    1
    83   130   129    1
    84   130   131    1
    85   145   147    1
    86   145   146    1
    87   151   150    1
    88   151   152    2
    89    60    57    1
    90   148   146    1
    91   131   132    2
    92    57    56    1
    93   150   149    1
    94   150   153    1
    95   166   164    1
    96     6     5    1
    97   165   163    1
    98    14    16   ar
    99    14    13   ar
   100    16    18   ar
   101   164   163    1
   102   153   154    1
   103    12    13    1
   104    12     9    1
   105     8     9    1
   106    13    15   ar
   107   163   160    1
   108     5     2    1
   109     5     7    1
   110    56    49   am
   111   156   154   ar
   112   156   158   ar
   113     2     1    1
   114     2     3    1
   115   154   155   ar
   116    18    17   ar
   117   159   160    1
   118     9    10    1
   119    50    49    2
   120    49    48    1
   121   158   157   ar
   122    15    17   ar
   123   160   161    1
   124   155   157   ar
   125     3     4    2
   126    51    48    1
   127    51    52    1
   128    10    11    2
   129    48    47    1
   130    54    53   ar
   131   161   162    2
   132    42    43    1
   133    42    39    1
   134    43    44    1
   135    40    39    1
   136    40    41    2
   137    46    44   ar
   138    53    52    1
   139    53    55   ar
   140    44    45   ar
   141    39    38    1
   142    26    25    1
   143    26    27    2
   144    29    27    1
   145    25    24    1
   146    27    28    1
   147   170   169    2
   148   176   175    1
   149    19    20    1
   150   169   168    1
   151    23    20    1
   152    23    24    1
   153    20    21    1
   154   175   177    1
   155   175   174    2
   156   168   167    1
   157   168   171    1
   158   173   174    1
   159   173   172    1
   160    21    30   am
   161    21    22    2
   162    30    31    1
   163   171   172    1
   164    33    32    2
   165    31    32    1
   166    31    34    1
   167    35    34    1
   168    35    37    1
   169    34    36    1
