@<TRIPOS>MOLECULE
tmp/2pc8A00.pdb
 91 91 0 0 0
SMALL
GASTEIGER

@<TRIPOS>ATOM
      1  N         31.7220   20.5170   76.4690 N.3     5  ASP5       -0.1239
      2  CA        32.1810   20.8990   77.8130 C.3     5  ASP5        0.1674
      3  C         33.6580   20.6710   78.0070 C.2     5  ASP5        0.2266
      4  O         34.3100   21.4560   78.6790 O.2     5  ASP5       -0.2867
      5  CB        31.4250   20.1290   78.8930 C.3     5  ASP5        0.1410
      6  CG        29.9980   20.5810   79.0280 C.2     5  ASP5        0.3668
      7  OD1       29.7840   21.8020   79.1230 O.co2   5  ASP5       -0.2456
      8  OD2       29.0960   19.7210   79.0410 O.co2   5  ASP5       -0.2456
      9  N         17.1130   30.5500   73.3090 N.3   233  LEU233     -0.1245
     10  CA        17.3980   29.1060   73.1180 C.3   233  LEU233      0.1561
     11  C         18.0570   28.5060   74.3710 C.2   233  LEU233      0.2260
     12  O         19.2160   28.0890   74.3620 O.2   233  LEU233     -0.2867
     13  CB        18.2200   28.8450   71.8410 C.3   233  LEU233      0.0270
     14  CG        17.4600   29.0560   70.5360 C.3   233  LEU233      0.0019
     15  CD1       18.4160   28.9530   69.3470 C.3   233  LEU233      0.0001
     16  CD2       16.2880   28.0920   70.4080 C.3   233  LEU233      0.0001
     17  N         18.0650   26.2060   78.1310 N.3   235  VAL235     -0.1245
     18  CA        17.6770   24.9710   78.8130 C.3   235  VAL235      0.1561
     19  C         16.3930   25.1910   79.6230 C.2   235  VAL235      0.2260
     20  O         15.5350   24.3210   79.6650 O.2   235  VAL235     -0.2867
     21  CB        18.8420   24.4800   79.7040 C.3   235  VAL235      0.0252
     22  CG1       18.3830   23.4420   80.7560 C.3   235  VAL235      0.0019
     23  CG2       19.9640   23.9110   78.8130 C.3   235  VAL235      0.0019
     24  N         15.3460   23.9880   75.2750 N.3   239  GLN239     -0.1231
     25  CA        16.0870   24.1380   74.0390 C.3   239  GLN239      0.1698
     26  C         17.5410   23.8470   74.3700 C.2   239  GLN239      0.2592
     27  O         18.0900   24.4490   75.2770 O.2   239  GLN239     -0.2718
     28  CB        15.8540   25.5430   73.4620 C.3   239  GLN239      0.0381
     29  CG        14.3960   25.7540   73.0360 C.3   239  GLN239      0.0905
     30  CD        13.8810   27.1820   73.1770 C.2   239  GLN239      0.2608
     31  OE1       14.4870   28.0180   73.8270 O.2   239  GLN239     -0.2717
     32  NE2       12.7280   27.4430   72.5840 N.am  239  GLN239     -0.0878
     33  N         18.1550   22.9090   73.6410 N.am  240  TRP240     -0.1962
     34  CA        19.4050   22.2850   74.0600 C.3   240  TRP240      0.1771
     35  C         20.2720   21.9880   72.8270 C.2   240  TRP240      0.2620
     36  O         19.7710   21.9200   71.6860 O.2   240  TRP240     -0.2715
     37  CB        19.1360   20.9900   74.8920 C.3   240  TRP240      0.0590
     38  CG        18.3290   20.0140   74.1300 C.ar  240  TRP240      0.0006
     39  CD1       16.9860   20.0520   73.9260 C.ar  240  TRP240      0.0946
     40  CD2       18.8230   18.9130   73.3710 C.ar  240  TRP240      0.0152
     41  NE1       16.6120   19.0210   73.1020 N.ar  240  TRP240     -0.2442
     42  CE2       17.7190   18.3020   72.7580 C.ar  240  TRP240      0.0810
     43  CE3       20.0990   18.3580   73.1810 C.ar  240  TRP240      0.0012
     44  CZ2       17.8460   17.1690   71.9350 C.ar  240  TRP240      0.0191
     45  CZ3       20.2220   17.2270   72.3790 C.ar  240  TRP240      0.0001
     46  CH2       19.1050   16.6550   71.7590 C.ar  240  TRP240      0.0015
     47  N         21.5680   21.8180   73.0830 N.am  241  ASN241     -0.1958
     48  CA        22.5940   21.6150   72.0680 C.3   241  ASN241      0.1819
     49  C         22.6520   22.8240   71.1280 C.2   241  ASN241      0.2621
     50  O         22.4700   22.7070   69.9250 O.2   241  ASN241     -0.2715
     51  CB        22.4150   20.2950   71.2830 C.3   241  ASN241      0.1195
     52  CG        23.2740   19.1680   71.8230 C.2   241  ASN241      0.2630
     53  OD1       23.8720   19.2930   72.8990 O.2   241  ASN241     -0.2716
     54  ND2       23.3450   18.0610   71.0850 N.am  241  ASN241     -0.0877
     55  N         22.8940   23.9770   71.7360 N.am  242  VAL242     -0.1977
     56  CA        22.9470   25.2590   71.0330 C.3   242  VAL242      0.1596
     57  C         24.3290   25.8730   71.2730 C.2   242  VAL242      0.2287
     58  O         24.7960   25.9360   72.4050 O.2   242  VAL242     -0.2864
     59  CB        21.8200   26.1890   71.5110 C.3   242  VAL242      0.0276
     60  CG1       21.9710   27.5910   70.9450 C.3   242  VAL242      0.0022
     61  CG2       20.4470   25.5940   71.1080 C.3   242  VAL242      0.0022
     62  N         26.3460   32.3310   78.6800 N.3   279  SER279     -0.1202
     63  CA        25.6600   31.1390   79.1540 C.3   279  SER279      0.2020
     64  C         25.5180   30.0190   78.1150 C.2   279  SER279      0.2619
     65  O         25.0030   28.9570   78.4530 O.2   279  SER279     -0.2717
     66  CB        24.2790   31.5220   79.6690 C.3   279  SER279      0.2103
     67  OG        23.4860   32.0480   78.6170 O.3   279  SER279     -0.2182
     68  N         25.8950   30.2530   76.8550 N.am  280  HIS280     -0.1961
     69  CA        25.9550   29.1580   75.8750 C.3   280  HIS280      0.1787
     70  C         27.3710   28.7800   75.5980 C.2   280  HIS280      0.2620
     71  O         28.2680   29.5990   75.7030 O.2   280  HIS280     -0.2715
     72  CB        25.3560   29.5110   74.5220 C.3   280  HIS280      0.0785
     73  CG        23.8970   29.7920   74.5410 C.ar  280  HIS280      0.0821
     74  ND1       22.9410   28.8040   74.4540 N.ar  280  HIS280     -0.2267
     75  CD2       23.2260   30.9630   74.6330 C.ar  280  HIS280      0.1154
     76  CE1       21.7420   29.3660   74.4750 C.ar  280  HIS280      0.1986
     77  NE2       21.8880   30.6690   74.5790 N.ar  280  HIS280     -0.2212
     78  N         27.5570   27.5220   75.2100 N.am  281  TRP281     -0.1974
     79  CA        28.7820   27.0910   74.5640 C.3   281  TRP281      0.1640
     80  C         29.0480   28.0690   73.4140 C.2   281  TRP281      0.2290
     81  O         28.1150   28.4840   72.7470 O.2   281  TRP281     -0.2864
     82  CB        28.5960   25.7050   73.9690 C.3   281  TRP281      0.0576
     83  CG        28.4910   24.5890   74.9350 C.ar  281  TRP281      0.0006
     84  CD1       29.1410   24.4550   76.1260 C.ar  281  TRP281      0.0946
     85  CD2       27.7560   23.3820   74.7320 C.ar  281  TRP281      0.0152
     86  NE1       28.8110   23.2350   76.7060 N.ar  281  TRP281     -0.2442
     87  CE2       27.9700   22.5600   75.8620 C.ar  281  TRP281      0.0810
     88  CE3       26.9240   22.9230   73.7090 C.ar  281  TRP281      0.0012
     89  CZ2       27.3720   21.3040   75.9950 C.ar  281  TRP281      0.0191
     90  CZ3       26.3360   21.6670   73.8450 C.ar  281  TRP281      0.0001
     91  CH2       26.5580   20.8840   74.9850 C.ar  281  TRP281      0.0015
@<TRIPOS>BOND
     1    15    14    1
     2    50    49    2
     3    16    14    1
     4    14    13    1
     5    60    59    1
     6    56    57    1
     7    56    59    1
     8    56    55    1
     9    54    52   am
    10    61    59    1
    11    49    55   am
    12    49    48    1
    13    57    58    2
    14    51    52    1
    15    51    48    1
    16    36    35    2
    17    46    44   ar
    18    46    45   ar
    19    52    53    2
    20    13    10    1
    21    44    42   ar
    22    48    47    1
    23    45    43   ar
    24    32    30   am
    25    81    80    2
    26    42    41   ar
    27    42    40   ar
    28    35    47   am
    29    35    34    1
    30    29    30    1
    31    29    28    1
    32    41    39   ar
    33    10     9    1
    34    10    11    1
    35    30    31    2
    36    43    40   ar
    37    40    38   ar
    38    80    79    1
    39    28    25    1
    40    33    34    1
    41    33    26   am
    42    88    90   ar
    43    88    85   ar
    44    90    91   ar
    45    39    38   ar
    46    82    79    1
    47    82    83    1
    48    25    26    1
    49    25    24    1
    50    34    37    1
    51    38    37    1
    52    12    11    2
    53    26    27    2
    54    74    76   ar
    55    74    73   ar
    56    76    77   ar
    57    72    73    1
    58    72    69    1
    59    73    75   ar
    60    79    78    1
    61    77    75   ar
    62    85    83   ar
    63    85    87   ar
    64    83    84   ar
    65    91    89   ar
    66    78    70   am
    67    70    71    2
    68    70    69    1
    69    87    89   ar
    70    87    86   ar
    71    69    68    1
    72    84    86   ar
    73     1     2    1
    74    68    64   am
    75     2     3    1
    76     2     5    1
    77     3     4    2
    78    64    65    2
    79    64    63    1
    80    17    18    1
    81    67    66    1
    82    62    63    1
    83    18    19    1
    84    18    21    1
    85    23    21    1
    86     5     6    1
    87     6     8   ar
    88     6     7   ar
    89    63    66    1
    90    19    20    2
    91    21    22    1
