@<TRIPOS>MOLECULE
tmp/2pc8A01.pdb
 97 92 0 0 0
SMALL
GASTEIGER

@<TRIPOS>ATOM
      1  N         27.5680   41.4670   51.9790 N.3   138  PHE138     -0.1241
      2  CA        28.9860   41.1910   51.8130 C.3   138  PHE138      0.1605
      3  C         29.1360   40.3180   50.5860 C.2   138  PHE138      0.2264
      4  O         28.2520   39.5100   50.2480 O.2   138  PHE138     -0.2867
      5  CB        29.5690   40.4040   53.0080 C.3   138  PHE138      0.0534
      6  CG        29.3960   41.0620   54.3640 C.ar  138  PHE138     -0.0203
      7  CD1       29.3110   42.4410   54.5120 C.ar  138  PHE138     -0.0042
      8  CD2       29.4140   40.2700   55.5080 C.ar  138  PHE138     -0.0042
      9  CE1       29.1850   42.9980   55.7690 C.ar  138  PHE138     -0.0003
     10  CE2       29.3060   40.8160   56.7660 C.ar  138  PHE138     -0.0003
     11  CZ        29.1820   42.1700   56.9080 C.ar  138  PHE138     -0.0000
     12  N         30.8910   37.7740   50.3160 N.3   140  ASN140     -0.1240
     13  CA        30.9150   36.3860   50.7710 C.3   140  ASN140      0.1653
     14  C         29.5410   35.7660   51.0580 C.2   140  ASN140      0.2266
     15  O         29.4610   34.5780   51.3770 O.2   140  ASN140     -0.2867
     16  CB        31.8670   36.2620   51.9770 C.3   140  ASN140      0.1155
     17  CG        31.4720   37.1430   53.1490 C.2   140  ASN140      0.2627
     18  OD1       30.4020   36.9950   53.7210 O.2   140  ASN140     -0.2716
     19  ND2       32.3410   38.0890   53.4930 N.am  140  ASN140     -0.0877
     20  N         26.8150   35.3340   59.6370 N.3   186  GLU186     -0.1245
     21  CA        26.9190   36.8030   59.6770 C.3   186  GLU186      0.1567
     22  C         25.7030   37.5960   59.1750 C.2   186  GLU186      0.2260
     23  O         25.8470   38.4720   58.3340 O.2   186  GLU186     -0.2867
     24  CB        28.2020   37.2710   58.9690 C.3   186  GLU186      0.0388
     25  CG        29.4880   36.7920   59.6630 C.3   186  GLU186      0.1160
     26  CD        30.7760   37.4480   59.1570 C.2   186  GLU186      0.3649
     27  OE1       30.7300   38.2220   58.1570 O.co2 186  GLU186     -0.2457
     28  OE2       31.8420   37.2260   59.7770 O.co2 186  GLU186     -0.2457
     29  N         23.5840   40.6300   59.2550 N.3   188  LEU188     -0.1245
     30  CA        24.0500   41.9470   59.6410 C.3   188  LEU188      0.1561
     31  C         23.0100   42.6070   60.5500 C.2   188  LEU188      0.2260
     32  O         22.1250   43.3290   60.1130 O.2   188  LEU188     -0.2867
     33  CB        24.3670   42.7800   58.3900 C.3   188  LEU188      0.0270
     34  CG        25.0480   44.1210   58.6290 C.3   188  LEU188      0.0019
     35  CD1       26.3480   44.0070   59.3700 C.3   188  LEU188      0.0001
     36  CD2       25.2490   44.7960   57.2590 C.3   188  LEU188      0.0001
     37  N         26.5140   40.1230   65.1070 N.3   223  PHE223     -0.1241
     38  CA        27.3060   41.3040   65.4610 C.3   223  PHE223      0.1605
     39  C         26.7330   42.0330   66.6720 C.2   223  PHE223      0.2264
     40  O         26.9760   43.2350   66.8360 O.2   223  PHE223     -0.2867
     41  CB        27.4360   42.2630   64.2610 C.3   223  PHE223      0.0534
     42  CG        28.0200   41.6080   63.0380 C.ar  223  PHE223     -0.0203
     43  CD1       29.3810   41.3810   62.9510 C.ar  223  PHE223     -0.0042
     44  CD2       27.2090   41.1880   62.0040 C.ar  223  PHE223     -0.0042
     45  CE1       29.9170   40.7520   61.8450 C.ar  223  PHE223     -0.0003
     46  CE2       27.7360   40.5800   60.8920 C.ar  223  PHE223     -0.0003
     47  CZ        29.0760   40.3630   60.8080 C.ar  223  PHE223     -0.0000
     48  N         37.5880   40.2100   64.3200 N.3   249  TYR249     -0.1241
     49  CA        38.7020   40.8400   63.5830 C.3   249  TYR249      0.1605
     50  C         39.0160   42.2160   64.1680 C.2   249  TYR249      0.2264
     51  O         38.2190   42.7720   64.9380 O.2   249  TYR249     -0.2867
     52  CB        38.3610   41.0170   62.1100 C.3   249  TYR249      0.0534
     53  CG        37.9510   39.7270   61.3760 C.ar  249  TYR249     -0.0201
     54  CD1       38.8590   38.6760   61.1330 C.ar  249  TYR249     -0.0009
     55  CD2       36.6560   39.5870   60.8960 C.ar  249  TYR249     -0.0009
     56  CE1       38.4480   37.5160   60.4440 C.ar  249  TYR249      0.0417
     57  CE2       36.2490   38.4520   60.1990 C.ar  249  TYR249      0.0417
     58  CZ        37.1350   37.4280   59.9650 C.ar  249  TYR249      0.1957
     59  OH        36.6600   36.3430   59.2620 O.3   249  TYR249     -0.2866
     60  N         38.5910   46.1800   60.2180 N.3   252  PHE252     -0.1241
     61  CA        37.5490   46.7380   59.3530 C.3   252  PHE252      0.1605
     62  C         37.0350   48.1190   59.7400 C.2   252  PHE252      0.2264
     63  O         35.9370   48.5210   59.3470 O.2   252  PHE252     -0.2867
     64  CB        36.4210   45.7350   59.1670 C.3   252  PHE252      0.0534
     65  CG        36.8530   44.5030   58.4120 C.ar  252  PHE252     -0.0203
     66  CD1       37.2260   44.5910   57.0880 C.ar  252  PHE252     -0.0042
     67  CD2       36.9140   43.2550   59.0450 C.ar  252  PHE252     -0.0042
     68  CE1       37.6200   43.4520   56.3620 C.ar  252  PHE252     -0.0003
     69  CE2       37.2910   42.1060   58.3230 C.ar  252  PHE252     -0.0003
     70  CZ        37.6660   42.2210   56.9850 C.ar  252  PHE252     -0.0000
     71  N         40.0680   42.6640   49.7980 N.3   298  LEU298     -0.1231
     72  CA        39.4760   42.2140   51.0790 C.3   298  LEU298      0.1693
     73  C         38.1440   42.9550   51.3740 C.2   298  LEU298      0.2592
     74  O         37.1890   42.3660   51.9010 O.2   298  LEU298     -0.2718
     75  CB        40.4380   42.4780   52.2260 C.3   298  LEU298      0.0284
     76  CG        40.0310   42.0410   53.6280 C.3   298  LEU298      0.0019
     77  CD1       39.9380   40.5290   53.6800 C.3   298  LEU298      0.0001
     78  CD2       41.0400   42.6230   54.6630 C.3   298  LEU298      0.0001
     79  N         38.1080   44.2460   51.0490 N.am  299  ASN299     -0.1974
     80  CA        36.9090   45.0750   51.2840 C.3   299  ASN299      0.1688
     81  C         35.8900   44.9720   50.1650 C.2   299  ASN299      0.2292
     82  O         34.7720   45.4890   50.2740 O.2   299  ASN299     -0.2864
     83  CB        37.2880   46.5310   51.5400 C.3   299  ASN299      0.1181
     84  CG        38.0830   46.6980   52.8220 C.2   299  ASN299      0.2629
     85  OD1       37.6880   46.1860   53.8730 O.2   299  ASN299     -0.2716
     86  ND2       39.1920   47.4220   52.7500 N.am  299  ASN299     -0.0877
     87  N         41.7800   50.6990   53.8840 N.3   306  ARG306     -0.1245
     88  CA        41.7870   51.7530   54.8850 C.3   306  ARG306      0.1563
     89  C         43.2000   51.9970   55.4030 C.2   306  ARG306      0.2260
     90  O         43.5350   53.1130   55.7700 O.2   306  ARG306     -0.2867
     91  CB        40.9160   51.4090   56.0850 C.3   306  ARG306      0.0307
     92  CG        39.4740   51.1420   55.7760 C.3   306  ARG306      0.0489
     93  CD        38.7810   50.6920   57.0360 C.3   306  ARG306      0.2205
     94  NE        37.4440   50.2340   56.7220 N.pl3 306  ARG306     -0.0865
     95  CZ        37.1540   49.0480   56.2040 C.cat 306  ARG306      0.5346
     96  NH1       38.1000   48.1460   55.9550 N.pl3 306  ARG306      0.1354
     97  NH2       35.8960   48.7640   55.9470 N.pl3 306  ARG306      0.1354
@<TRIPOS>BOND
     1    71    72    1
     2    81    82    2
     3    81    80    1
     4     4     3    2
     5    12    13    1
     6     3     2    1
     7    13    14    1
     8    13    16    1
     9    79    80    1
    10    79    73   am
    11    14    15    2
    12    72    73    1
    13    72    75    1
    14    80    83    1
    15    73    74    2
    16    83    84    1
    17     2     1    1
    18     2     5    1
    19    16    17    1
    20    75    76    1
    21    86    84   am
    22    84    85    2
    23     5     6    1
    24    17    19   am
    25    17    18    2
    26    76    77    1
    27    76    78    1
    28    87    88    1
    29     6     7   ar
    30     6     8   ar
    31     7     9   ar
    32    88    89    1
    33    88    91    1
    34    89    90    2
    35     8    10   ar
    36     9    11   ar
    37    92    91    1
    38    92    93    1
    39    97    95    1
    40    96    95    1
    41    95    94    2
    42    68    70   ar
    43    68    66   ar
    44    94    93    1
    45    10    11   ar
    46    70    69   ar
    47    66    65   ar
    48    36    34    1
    49    27    26   ar
    50    69    67   ar
    51    23    22    2
    52    33    34    1
    53    33    30    1
    54    65    67   ar
    55    65    64    1
    56    34    35    1
    57    24    25    1
    58    24    21    1
    59    26    25    1
    60    26    28   ar
    61    64    61    1
    62    22    21    1
    63    29    30    1
    64    59    58    1
    65    63    62    2
    66    61    62    1
    67    61    60    1
    68    20    21    1
    69    30    31    1
    70    58    57   ar
    71    58    56   ar
    72    32    31    2
    73    57    55   ar
    74    56    54   ar
    75    47    46   ar
    76    47    45   ar
    77    46    44   ar
    78    55    53   ar
    79    54    53   ar
    80    53    52    1
    81    45    43   ar
    82    44    42   ar
    83    52    49    1
    84    43    42   ar
    85    42    41    1
    86    49    50    1
    87    49    48    1
    88    50    51    2
    89    41    38    1
    90    37    38    1
    91    38    39    1
    92    39    40    2
