@<TRIPOS>MOLECULE
tmp/2pcpD00.pdb
 102 105 0 0 0
SMALL
GASTEIGER

@<TRIPOS>ATOM
      1  N         47.0990   66.2900   34.0680 N.3    33  TYR33      -0.1241
      2  CA        47.8570   65.2160   34.7020 C.3    33  TYR33       0.1605
      3  C         47.4860   63.9060   34.0270 C.2    33  TYR33       0.2264
      4  O         46.3260   63.6830   33.7390 O.2    33  TYR33      -0.2867
      5  CB        47.5050   65.0460   36.1850 C.3    33  TYR33       0.0534
      6  CG        47.7340   66.2560   37.0460 C.ar   33  TYR33      -0.0201
      7  CD1       47.3390   67.5160   36.6300 C.ar   33  TYR33      -0.0009
      8  CD2       48.3250   66.1300   38.2900 C.ar   33  TYR33      -0.0009
      9  CE1       47.5320   68.6110   37.4290 C.ar   33  TYR33       0.0417
     10  CE2       48.5190   67.2150   39.0980 C.ar   33  TYR33       0.0417
     11  CZ        48.1300   68.4560   38.6690 C.ar   33  TYR33       0.1957
     12  OH        48.3730   69.5350   39.4870 O.3    33  TYR33      -0.2866
     13  N         47.4990   59.9090   34.6240 N.3    35  HIS35      -0.1241
     14  CA        47.6570   58.9750   35.7100 C.3    35  HIS35       0.1621
     15  C         47.7510   57.6130   35.0900 C.2    35  HIS35       0.2264
     16  O         47.4250   57.4550   33.9160 O.2    35  HIS35      -0.2867
     17  CB        46.3980   58.9890   36.5860 C.3    35  HIS35       0.0745
     18  CG        46.2900   60.1460   37.5160 C.ar   35  HIS35       0.0817
     19  ND1       46.0290   61.4320   37.0880 N.ar   35  HIS35      -0.2268
     20  CD2       46.3420   60.2050   38.8580 C.ar   35  HIS35       0.1154
     21  CE1       45.9230   62.2280   38.1320 C.ar   35  HIS35       0.1986
     22  NE2       46.1140   61.5030   39.2280 N.ar   35  HIS35      -0.2212
     23  N         45.5010   52.6550   42.3740 N.3    47  TRP47      -0.1241
     24  CA        46.0870   53.7560   41.6790 C.3    47  TRP47       0.1605
     25  C         47.6130   53.6560   41.7590 C.2    47  TRP47       0.2264
     26  O         48.1750   53.4230   42.8250 O.2    47  TRP47      -0.2867
     27  CB        45.4910   55.0540   42.1910 C.3    47  TRP47       0.0550
     28  CG        46.2100   56.2460   41.7840 C.ar   47  TRP47       0.0003
     29  CD1       46.0780   56.9400   40.6270 C.ar   47  TRP47       0.0946
     30  CD2       47.1440   56.9590   42.6060 C.ar   47  TRP47       0.0152
     31  NE1       46.8720   58.0640   40.6880 N.ar   47  TRP47      -0.2442
     32  CE2       47.5240   58.1060   41.8900 C.ar   47  TRP47       0.0810
     33  CE3       47.6820   56.7440   43.8820 C.ar   47  TRP47       0.0012
     34  CZ2       48.4310   59.0380   42.4060 C.ar   47  TRP47       0.0191
     35  CZ3       48.5810   57.6550   44.3930 C.ar   47  TRP47       0.0001
     36  CH2       48.9440   58.7970   43.6570 C.ar   47  TRP47       0.0015
     37  N         50.9550   59.3970   39.1980 N.3    50  TYR50      -0.1241
     38  CA        50.7590   60.2810   38.0450 C.3    50  TYR50       0.1605
     39  C         52.0110   61.0580   37.6600 C.2    50  TYR50       0.2264
     40  O         52.9450   61.1440   38.4410 O.2    50  TYR50      -0.2867
     41  CB        49.6540   61.3220   38.3300 C.3    50  TYR50       0.0534
     42  CG        50.0790   62.4620   39.2040 C.ar   50  TYR50      -0.0201
     43  CD1       50.1700   62.3100   40.5650 C.ar   50  TYR50      -0.0009
     44  CD2       50.6220   63.6220   38.6570 C.ar   50  TYR50      -0.0009
     45  CE1       50.8170   63.2600   41.3650 C.ar   50  TYR50       0.0417
     46  CE2       51.2640   64.5730   39.4440 C.ar   50  TYR50       0.0417
     47  CZ        51.3670   64.3920   40.8110 C.ar   50  TYR50       0.1957
     48  OH        51.9880   65.2940   41.6320 O.3    50  TYR50      -0.2866
     49  N         43.6120   63.6710   33.9790 N.3    99  SER99      -0.1202
     50  CA        42.9630   64.3380   35.0860 C.3    99  SER99       0.2020
     51  C         43.5030   65.7450   35.1540 C.2    99  SER99       0.2619
     52  O         44.6520   66.0130   34.8170 O.2    99  SER99      -0.2717
     53  CB        43.2600   63.6370   36.4100 C.3    99  SER99       0.2103
     54  OG        44.3040   64.3030   37.1090 O.3    99  SER99      -0.2182
     55  N         42.6760   66.6160   35.6960 N.am  100  THR100     -0.1938
     56  CA        42.9780   68.0200   35.8870 C.3   100  THR100      0.2028
     57  C         43.2330   68.1410   37.4080 C.2   100  THR100      0.2642
     58  O         43.0240   67.1520   38.1150 O.2   100  THR100     -0.2714
     59  CB        41.7650   68.8240   35.4010 C.3   100  THR100      0.1808
     60  OG1       42.1880   70.1020   34.9270 O.3   100  THR100     -0.2208
     61  CG2       40.7010   68.9210   36.5140 C.3   100  THR100      0.0379
     62  N         43.6510   69.3050   37.9310 N.am  101  TRP101     -0.1959
     63  CA        43.9200   69.3670   39.3700 C.3   101  TRP101      0.1771
     64  C         42.9140   68.7200   40.2540 C.2   101  TRP101      0.2620
     65  O         43.2600   68.2780   41.2990 O.2   101  TRP101     -0.2715
     66  CB        44.1700   70.7890   39.8990 C.3   101  TRP101      0.0590
     67  CG        44.1480   70.9010   41.4560 C.ar  101  TRP101      0.0006
     68  CD1       43.1430   71.4270   42.2200 C.ar  101  TRP101      0.0946
     69  CD2       45.1060   70.3820   42.3910 C.ar  101  TRP101      0.0152
     70  NE1       43.3970   71.2430   43.5550 N.ar  101  TRP101     -0.2442
     71  CE2       44.5920   70.6090   43.6900 C.ar  101  TRP101      0.0810
     72  CE3       46.3450   69.7390   42.2590 C.ar  101  TRP101      0.0012
     73  CZ2       45.2630   70.2190   44.8370 C.ar  101  TRP101      0.0191
     74  CZ3       47.0130   69.3490   43.4020 C.ar  101  TRP101      0.0001
     75  CH2       46.4680   69.5910   44.6780 C.ar  101  TRP101      0.0015
     76  N         41.6540   68.7180   39.8500 N.am  102  ASP102     -0.1957
     77  CA        40.5510   68.1620   40.6630 C.3   102  ASP102      0.1840
     78  C         40.0480   66.7310   40.3270 C.2   102  ASP102      0.2622
     79  O         39.6740   65.9810   41.2330 O.2   102  ASP102     -0.2715
     80  CB        39.3180   69.1130   40.5990 C.3   102  ASP102      0.1450
     81  CG        39.4360   70.3230   41.5000 C.2   102  ASP102      0.3671
     82  OD1       39.3680   70.1630   42.7440 O.co2 102  ASP102     -0.2456
     83  OD2       39.5240   71.4440   40.9710 O.co2 102  ASP102     -0.2456
     84  N         39.8920   66.4040   39.0420 N.am  103  ASP103     -0.1957
     85  CA        39.3550   65.0760   38.7050 C.3   103  ASP103      0.1840
     86  C         39.8420   64.5350   37.3940 C.2   103  ASP103      0.2622
     87  O         40.4610   65.2110   36.6120 O.2   103  ASP103     -0.2715
     88  CB        37.8070   65.0650   38.5740 C.3   103  ASP103      0.1450
     89  CG        37.0730   65.4380   39.8430 C.2   103  ASP103      0.3671
     90  OD1       36.8890   64.5760   40.7090 O.co2 103  ASP103     -0.2456
     91  OD2       36.6100   66.5930   39.9270 O.co2 103  ASP103     -0.2456
     92  N         39.5010   63.2800   37.1810 N.am  104  PHE104     -0.1974
     93  CA        39.8100   62.5580   35.9750 C.3   104  PHE104      0.1639
     94  C         38.7590   63.0020   34.9780 C.2   104  PHE104      0.2290
     95  O         37.6270   63.3000   35.3660 O.2   104  PHE104     -0.2864
     96  CB        39.6160   61.0730   36.2310 C.3   104  PHE104      0.0560
     97  CG        40.8470   60.3650   36.7270 C.ar  104  PHE104     -0.0200
     98  CD1       41.9210   60.1420   35.8670 C.ar  104  PHE104     -0.0042
     99  CD2       40.8490   59.7640   37.9870 C.ar  104  PHE104     -0.0042
    100  CE1       42.9550   59.3130   36.2510 C.ar  104  PHE104     -0.0003
    101  CE2       41.8980   58.9130   38.3920 C.ar  104  PHE104     -0.0003
    102  CZ        42.9380   58.6870   37.5270 C.ar  104  PHE104     -0.0000
@<TRIPOS>BOND
     1     4     3    2
     2    16    15    2
     3    49    50    1
     4     3     2    1
     5     1     2    1
     6    13    14    1
     7     2     5    1
     8    52    51    2
     9    60    59    1
    10    94    95    2
    11    94    93    1
    12    50    51    1
    13    50    53    1
    14    15    14    1
    15    51    55   am
    16    59    56    1
    17    59    61    1
    18    55    56    1
    19    14    17    1
    20    98   100   ar
    21    98    97   ar
    22    56    57    1
    23    93    96    1
    24    93    92    1
    25     5     6    1
    26    96    97    1
    27   100   102   ar
    28    53    54    1
    29    17    18    1
    30    87    86    2
    31     7     6   ar
    32     7     9   ar
    33    97    99   ar
    34     6     8   ar
    35    19    18   ar
    36    19    21   ar
    37    92    86   am
    38    86    85    1
    39    57    62   am
    40    57    58    2
    41     9    11   ar
    42    18    20   ar
    43   102   101   ar
    44    39    38    1
    45    39    40    2
    46    62    63    1
    47    99   101   ar
    48    38    41    1
    49    38    37    1
    50    21    22   ar
    51     8    10   ar
    52    41    42    1
    53    88    85    1
    54    88    89    1
    55    44    42   ar
    56    44    46   ar
    57    11    10   ar
    58    11    12    1
    59    85    84    1
    60    20    22   ar
    61    84    78   am
    62    42    43   ar
    63    63    66    1
    64    63    64    1
    65    46    47   ar
    66    89    91   ar
    67    89    90   ar
    68    76    64   am
    69    76    77    1
    70    66    67    1
    71    64    65    2
    72    78    77    1
    73    78    79    2
    74    43    45   ar
    75    80    77    1
    76    80    81    1
    77    29    31   ar
    78    29    28   ar
    79    31    32   ar
    80    47    45   ar
    81    47    48    1
    82    83    81   ar
    83    67    68   ar
    84    67    69   ar
    85    81    82   ar
    86    24    25    1
    87    24    27    1
    88    24    23    1
    89    25    26    2
    90    28    27    1
    91    28    30   ar
    92    32    34   ar
    93    32    30   ar
    94    68    70   ar
    95    72    69   ar
    96    72    74   ar
    97    69    71   ar
    98    34    36   ar
    99    30    33   ar
   100    74    75   ar
   101    70    71   ar
   102    36    35   ar
   103    71    73   ar
   104    33    35   ar
   105    75    73   ar
