@<TRIPOS>MOLECULE
tmp/2pcuA00.pdb
 157 151 0 0 0
SMALL
GASTEIGER

@<TRIPOS>ATOM
      1  N         -3.3870   38.2350   12.7400 N.3    66  HIS66      -0.1241
      2  CA        -3.6860   39.6430   13.0710 C.3    66  HIS66       0.1621
      3  C         -3.3620   40.5050   11.9020 C.2    66  HIS66       0.2264
      4  O         -2.2190   40.6150   11.4320 O.2    66  HIS66      -0.2867
      5  CB        -2.8370   40.0690   14.2810 C.3    66  HIS66       0.0745
      6  CG        -3.2420   39.3980   15.5480 C.ar   66  HIS66       0.0817
      7  ND1       -2.3300   38.9530   16.4930 N.ar   66  HIS66      -0.2268
      8  CD2       -4.4700   39.1370   16.0420 C.ar   66  HIS66       0.1154
      9  CE1       -3.0050   38.4750   17.5270 C.ar   66  HIS66       0.1986
     10  NE2       -4.2970   38.5680   17.2820 N.ar   66  HIS66      -0.2212
     11  N         -3.0660   43.5670   10.8410 N.3    68  ARG68      -0.1231
     12  CA        -2.1180   44.7010   10.7160 C.3    68  ARG68       0.1694
     13  C         -0.6390   44.2900   10.6930 C.2    68  ARG68       0.2591
     14  O          0.2370   45.1240   10.4100 O.2    68  ARG68      -0.2718
     15  CB        -2.3380   45.6900   11.8570 C.3    68  ARG68       0.0321
     16  CG        -2.2150   45.0710   13.2180 C.3    68  ARG68       0.0489
     17  CD        -2.5140   46.1920   14.2280 C.3    68  ARG68       0.2205
     18  NE        -2.5100   45.7240   15.6110 N.pl3  68  ARG68      -0.0865
     19  CZ        -3.2360   46.2740   16.5880 C.cat  68  ARG68       0.5346
     20  NH1       -4.0980   47.2670   16.3120 N.pl3  68  ARG68       0.1354
     21  NH2       -3.1180   45.7840   17.8480 N.pl3  68  ARG68       0.1354
     22  N         -0.3670   43.0050   10.9480 N.am   69  GLU69      -0.1979
     23  CA         1.0560   42.5670   11.1540 C.3    69  GLU69       0.1602
     24  C          1.5750   42.1160    9.7770 C.2    69  GLU69       0.2287
     25  O          1.8810   40.9210    9.5230 O.2    69  GLU69      -0.2864
     26  CB         1.1100   41.4610   12.2100 C.3    69  GLU69       0.0415
     27  CG         0.6500   41.9360   13.5650 C.3    69  GLU69       0.1163
     28  CD         0.4060   40.8330   14.5420 C.2    69  GLU69       0.3649
     29  OE1        0.8400   39.6850   14.3100 O.co2  69  GLU69      -0.2457
     30  OE2       -0.2230   41.1430   15.6100 O.co2  69  GLU69      -0.2457
     31  N         -4.5910   49.7160   10.8440 N.3   122  LEU122     -0.1245
     32  CA        -4.3170   49.1700   12.1690 C.3   122  LEU122      0.1561
     33  C         -5.3340   48.1820   12.6800 C.2   122  LEU122      0.2260
     34  O         -5.3030   47.8100   13.8490 O.2   122  LEU122     -0.2867
     35  CB        -4.1990   50.3070   13.1820 C.3   122  LEU122      0.0270
     36  CG        -3.1710   51.3510   12.8030 C.3   122  LEU122      0.0019
     37  CD1       -3.1940   52.5010   13.8390 C.3   122  LEU122      0.0001
     38  CD2       -1.8290   50.7140   12.6880 C.3   122  LEU122      0.0001
     39  N         -6.8330   44.7790   13.6680 N.3   124  ARG124     -0.1301
     40  CA        -6.2490   43.5340   14.2330 C.3   124  ARG124      0.1248
     41  C         -7.1620   42.2730   14.1040 C.3   124  ARG124      0.2009
     42  O         -6.6960   41.1290   13.7310 O.3   124  ARG124     -0.2188
     43  CB        -5.9370   43.7590   15.7190 C.3   124  ARG124      0.0254
     44  CG        -5.5900   42.4880   16.5210 C.3   124  ARG124      0.0485
     45  CD        -5.4070   42.8460   17.9700 C.3   124  ARG124      0.2205
     46  NE        -5.2180   41.7080   18.8680 N.pl3 124  ARG124     -0.0865
     47  CZ        -4.0260   41.1900   19.1580 C.cat 124  ARG124      0.5346
     48  NH1       -3.9380   40.2400   20.0910 N.pl3 124  ARG124      0.1354
     49  NH2       -2.9250   41.6870   18.5940 N.pl3 124  ARG124      0.1354
     50  N         -7.3680   34.9000   20.4970 N.3   142  ARG142     -0.1245
     51  CA        -7.9350   34.6200   21.8290 C.3   142  ARG142      0.1563
     52  C         -9.1230   33.6580   21.7050 C.2   142  ARG142      0.2260
     53  O         -9.8610   33.4310   22.6760 O.2   142  ARG142     -0.2867
     54  CB        -8.4310   35.8980   22.5190 C.3   142  ARG142      0.0307
     55  CG        -7.3640   36.9600   22.7280 C.3   142  ARG142      0.0489
     56  CD        -6.2490   36.5000   23.6680 C.3   142  ARG142      0.2205
     57  NE        -5.2970   37.5810   23.8940 N.pl3 142  ARG142     -0.0865
     58  CZ        -4.2480   37.7950   23.0870 C.cat 142  ARG142      0.5346
     59  NH1       -4.0350   36.9770   22.0410 N.pl3 142  ARG142      0.1354
     60  NH2       -3.4230   38.8290   23.3140 N.pl3 142  ARG142      0.1354
     61  N         -9.8160   45.1300   21.4830 N.3   160  GLU160     -0.1231
     62  CA        -8.8570   44.5220   20.5250 C.3   160  GLU160      0.1699
     63  C         -8.5590   43.0500   20.8660 C.2   160  GLU160      0.2592
     64  O         -8.0310   42.3480   19.9880 O.2   160  GLU160     -0.2718
     65  CB        -7.5180   45.2850   20.4060 C.3   160  GLU160      0.0402
     66  CG        -7.6290   46.6160   19.6060 C.3   160  GLU160      0.1161
     67  CD        -6.2480   47.2030   19.1410 C.2   160  GLU160      0.3649
     68  OE1       -6.2380   48.1640   18.3070 O.co2 160  GLU160     -0.2457
     69  OE2       -5.1920   46.7260   19.6340 O.co2 160  GLU160     -0.2457
     70  N         -8.8340   42.6210   22.1010 N.am  161  VAL161     -0.1980
     71  CA        -8.6010   41.2160   22.5140 C.3   161  VAL161      0.1595
     72  C         -9.9010   40.4900   22.8820 C.2   161  VAL161      0.2287
     73  O         -9.8890   39.5870   23.6990 O.2   161  VAL161     -0.2864
     74  CB        -7.5510   41.1350   23.6810 C.3   161  VAL161      0.0276
     75  CG1       -6.2020   41.6630   23.1970 C.3   161  VAL161      0.0022
     76  CG2       -7.9460   41.9110   24.9830 C.3   161  VAL161      0.0022
     77  N          3.7880   36.3090   13.9540 N.3   193  HIS193     -0.1226
     78  CA         3.1990   37.6200   14.2440 C.3   193  HIS193      0.1752
     79  C          4.2500   38.7030   14.1150 C.2   193  HIS193      0.2597
     80  O          5.4370   38.4480   13.8690 O.2   193  HIS193     -0.2718
     81  CB         2.7510   37.5910   15.7000 C.3   193  HIS193      0.0759
     82  CG         1.5620   36.7230   15.9990 C.ar  193  HIS193      0.0818
     83  ND1        0.3540   37.2410   16.4260 N.ar  193  HIS193     -0.2268
     84  CD2        1.4190   35.3710   15.9960 C.ar  193  HIS193      0.1154
     85  CE1       -0.5040   36.2480   16.6120 C.ar  193  HIS193      0.1986
     86  NE2        0.1160   35.0950   16.3570 N.ar  193  HIS193     -0.2212
     87  N          3.8300   39.9470   14.3560 N.am  194  SER194     -0.1938
     88  CA         4.7980   40.9930   14.6720 C.3   194  SER194      0.2055
     89  C          4.1440   41.9370   15.6970 C.2   194  SER194      0.2643
     90  O          2.9090   41.9280   15.8460 O.2   194  SER194     -0.2714
     91  CB         5.1870   41.7180   13.3960 C.3   194  SER194      0.2130
     92  OG         4.1720   42.6640   13.0200 O.3   194  SER194     -0.2179
     93  N          4.9160   42.7290   16.4280 N.am  195  TYR195     -0.1959
     94  CA         6.4080   42.8080   16.3890 C.3   195  TYR195      0.1771
     95  C          6.8850   42.6500   17.8080 C.2   195  TYR195      0.2620
     96  O          6.0740   42.6330   18.7670 O.2   195  TYR195     -0.2715
     97  CB         6.8360   44.2010   15.8340 C.3   195  TYR195      0.0574
     98  CG         6.3060   45.3320   16.7100 C.ar  195  TYR195     -0.0198
     99  CD1        4.9980   45.8010   16.5440 C.ar  195  TYR195     -0.0009
    100  CD2        7.0960   45.8790   17.7470 C.ar  195  TYR195     -0.0009
    101  CE1        4.4760   46.8040   17.3760 C.ar  195  TYR195      0.0417
    102  CE2        6.5590   46.8870   18.6040 C.ar  195  TYR195      0.0417
    103  CZ         5.2580   47.3230   18.3980 C.ar  195  TYR195      0.1957
    104  OH         4.7520   48.3160   19.2250 O.3   195  TYR195     -0.2866
    105  N          8.2130   42.5010   17.9550 N.am  196  SER196     -0.1950
    106  CA         8.9300   42.5940   19.2240 C.3   196  SER196      0.1924
    107  C         10.2230   41.7760   19.1820 C.2   196  SER196      0.2314
    108  O         11.0420   41.9320   20.0960 O.2   196  SER196     -0.2863
    109  CB         8.0830   42.1180   20.4180 C.3   196  SER196      0.2116
    110  OG         7.3120   43.1760   20.9770 O.3   196  SER196     -0.2180
    111  N         10.6970   38.2010   19.3780 N.3   198  LEU198     -0.1245
    112  CA        10.5200   37.2420   20.4670 C.3   198  LEU198      0.1561
    113  C         10.2570   35.8840   19.8350 C.2   198  LEU198      0.2260
    114  O          9.5880   35.7850   18.8050 O.2   198  LEU198     -0.2867
    115  CB         9.2790   37.6040   21.3000 C.3   198  LEU198      0.0270
    116  CG         9.2660   39.0140   21.9260 C.3   198  LEU198      0.0019
    117  CD1        7.9670   39.2370   22.7350 C.3   198  LEU198      0.0001
    118  CD2       10.4530   39.2320   22.8240 C.3   198  LEU198      0.0001
    119  N          5.9040   38.0090   26.8230 N.3   244  VAL244     -0.1231
    120  CA         5.1530   39.1290   26.2630 C.3   244  VAL244      0.1692
    121  C          4.0560   39.5620   27.2420 C.2   244  VAL244      0.2592
    122  O          4.1260   40.6660   27.8060 O.2   244  VAL244     -0.2718
    123  CB         4.6940   38.8200   24.7760 C.3   244  VAL244      0.0266
    124  CG1        3.6170   37.7200   24.6660 C.3   244  VAL244      0.0020
    125  CG2        4.2460   40.1070   24.0900 C.3   244  VAL244      0.0020
    126  N          3.0790   38.7030   27.5170 N.am  245  TYR245     -0.1976
    127  CA         1.9930   39.0090   28.4890 C.3   245  TYR245      0.1639
    128  C          1.0920   37.7720   28.5730 C.2   245  TYR245      0.2290
    129  O          1.1320   36.9270   27.6950 O.2   245  TYR245     -0.2864
    130  CB         1.1440   40.2410   28.0570 C.3   245  TYR245      0.0560
    131  CG         0.8340   40.3810   26.5760 C.ar  245  TYR245     -0.0198
    132  CD1        0.1010   39.4260   25.8840 C.ar  245  TYR245     -0.0009
    133  CD2        1.2930   41.4880   25.8930 C.ar  245  TYR245     -0.0009
    134  CE1       -0.1770   39.5970   24.4890 C.ar  245  TYR245      0.0417
    135  CE2        1.0320   41.6810   24.5400 C.ar  245  TYR245      0.0417
    136  CZ         0.3130   40.7430   23.8620 C.ar  245  TYR245      0.1957
    137  OH         0.0600   40.9060   22.4870 O.3   245  TYR245     -0.2866
    138  N          7.4640   36.5870   17.1310 N.3   267  GLU267     -0.1245
    139  CA         7.1010   38.0160   16.9680 C.3   267  GLU267      0.1567
    140  C          8.2340   38.5530   16.1520 C.2   267  GLU267      0.2260
    141  O          9.3480   38.6260   16.6530 O.2   267  GLU267     -0.2867
    142  CB         7.0170   38.7600   18.2870 C.3   267  GLU267      0.0388
    143  CG         5.8530   38.3390   19.1930 C.3   267  GLU267      0.1160
    144  CD         4.5080   38.8470   18.7020 C.2   267  GLU267      0.3649
    145  OE1        4.4640   39.6920   17.8090 O.co2 267  GLU267     -0.2457
    146  OE2        3.5200   38.3290   19.1930 O.co2 267  GLU267     -0.2457
    147  N          4.2110   47.8710   13.7190 N.3   276  PHE276     -0.1241
    148  CA         3.4420   47.1820   12.6540 C.3   276  PHE276      0.1605
    149  C          3.6900   47.7410   11.2880 C.2   276  PHE276      0.2264
    150  O          3.4300   47.0520   10.2790 O.2   276  PHE276     -0.2867
    151  CB         1.9260   47.2520   12.9270 C.3   276  PHE276      0.0534
    152  CG         1.5230   46.7250   14.2600 C.ar  276  PHE276     -0.0203
    153  CD1        1.7910   45.4210   14.6420 C.ar  276  PHE276     -0.0042
    154  CD2        0.9020   47.5800   15.1690 C.ar  276  PHE276     -0.0042
    155  CE1        1.3900   44.9500   15.8620 C.ar  276  PHE276     -0.0003
    156  CE2        0.5220   47.1190   16.4470 C.ar  276  PHE276     -0.0003
    157  CZ         0.7950   45.7790   16.7810 C.ar  276  PHE276     -0.0000
@<TRIPOS>BOND
     1    25    24    2
     2    24    23    1
     3   150   149    2
     4    14    13    2
     5    13    12    1
     6    13    22   am
     7    12    11    1
     8    12    15    1
     9    31    32    1
    10    22    23    1
    11    23    26    1
    12   149   148    1
    13     4     3    2
    14    15    16    1
    15     3     2    1
    16    32    33    1
    17    32    35    1
    18    26    27    1
    19   148   151    1
    20   148   147    1
    21    33    34    2
    22    38    36    1
    23     1     2    1
    24    36    35    1
    25    36    37    1
    26   151   152    1
    27    92    91    1
    28     2     5    1
    29    16    17    1
    30    91    88    1
    31    27    28    1
    32    39    40    1
    33    42    41    1
    34    80    79    2
    35    77    78    1
    36    41    40    1
    37    79    78    1
    38    79    87   am
    39    17    18    1
    40    40    43    1
    41    78    81    1
    42   152   153   ar
    43   152   154   ar
    44     5     6    1
    45    29    28   ar
    46    87    88    1
    47    28    30   ar
    48   153   155   ar
    49    88    89    1
    50   154   156   ar
    51     6     8   ar
    52     6     7   ar
    53    18    19    2
    54    89    90    2
    55    89    93   am
    56    81    82    1
    57    43    44    1
    58    97    94    1
    59    97    98    1
    60   155   157   ar
    61    84    82   ar
    62    84    86   ar
    63    82    83   ar
    64     8    10   ar
    65   140   141    2
    66   140   139    1
    67    20    19    1
    68    86    85   ar
    69    94    93    1
    70    94    95    1
    71    83    85   ar
    72   156   157   ar
    73     7     9   ar
    74    44    45    1
    75    99    98   ar
    76    99   101   ar
    77    19    21    1
    78    98   100   ar
    79   139   138    1
    80   139   142    1
    81    10     9   ar
    82   101   103   ar
    83   100   102   ar
    84    95   105   am
    85    95    96    2
    86   145   144   ar
    87   105   106    1
    88    45    46    1
    89   142   143    1
    90    68    67   ar
    91   103   102   ar
    92   103   104    1
    93    49    47    1
    94   144   146   ar
    95   144   143    1
    96   114   113    2
    97    46    47    2
    98    67    66    1
    99    67    69   ar
   100    47    48    1
   101   107   106    1
   102   107   108    2
   103   106   109    1
   104   111   112    1
   105    66    65    1
   106   113   112    1
   107    64    63    2
   108    65    62    1
   109   109   110    1
   110   112   115    1
   111    50    51    1
   112    62    63    1
   113    62    61    1
   114    63    70   am
   115   115   116    1
   116    52    51    1
   117    52    53    2
   118    51    54    1
   119   116   117    1
   120   116   118    1
   121    59    58    1
   122    70    71    1
   123   137   136    1
   124    71    72    1
   125    71    74    1
   126    54    55    1
   127    55    56    1
   128    72    73    2
   129    58    60    1
   130    58    57    2
   131    75    74    1
   132    56    57    1
   133    74    76    1
   134   136   134   ar
   135   136   135   ar
   136   125   123    1
   137   134   132   ar
   138   135   133   ar
   139   124   123    1
   140   123   120    1
   141   132   131   ar
   142   133   131   ar
   143   120   119    1
   144   120   121    1
   145   131   130    1
   146   121   126   am
   147   121   122    2
   148   126   127    1
   149   129   128    2
   150   130   127    1
   151   127   128    1
