@<TRIPOS>MOLECULE
tmp/2pd0B00.pdb
 134 127 0 0 0
SMALL
GASTEIGER

@<TRIPOS>ATOM
      1  N         50.2580   47.5910   72.0940 N.3     7  ASN7       -0.1225
      2  CA        49.9600   47.7620   70.6850 C.3     7  ASN7        0.1785
      3  C         50.9260   46.9130   69.8230 C.2     7  ASN7        0.2598
      4  O         52.0940   46.7330   70.1620 O.2     7  ASN7       -0.2718
      5  CB        50.0700   49.2370   70.3670 C.3     7  ASN7        0.1169
      6  CG        49.7850   49.5690   68.9310 C.2     7  ASN7        0.2627
      7  OD1       50.7020   49.6340   68.1170 O.2     7  ASN7       -0.2716
      8  ND2       48.5310   49.8890   68.6210 N.am    7  ASN7       -0.0877
      9  N         50.4350   46.3660   68.7240 N.am    8  SER8       -0.1938
     10  CA        51.2590   45.6230   67.7830 C.3     8  SER8        0.2055
     11  C         52.5570   46.3040   67.3940 C.2     8  SER8        0.2643
     12  O         53.5250   45.6330   67.1270 O.2     8  SER8       -0.2714
     13  CB        50.4900   45.3500   66.4770 C.3     8  SER8        0.2130
     14  OG        50.0500   46.5710   65.8660 O.3     8  SER8       -0.2179
     15  N         52.5700   47.6430   67.3320 N.am    9  PHE9       -0.1973
     16  CA        53.7780   48.3970   66.9620 C.3     9  PHE9        0.1639
     17  C         54.9630   47.9760   67.8140 C.2     9  PHE9        0.2290
     18  O         56.0580   47.8200   67.2920 O.2     9  PHE9       -0.2864
     19  CB        53.5470   49.9220   67.0800 C.3     9  PHE9        0.0560
     20  CG        54.6020   50.7850   66.3890 C.ar    9  PHE9       -0.0200
     21  CD1       55.4040   51.6550   67.1310 C.ar    9  PHE9       -0.0042
     22  CD2       54.7760   50.7540   65.0280 C.ar    9  PHE9       -0.0042
     23  CE1       56.3600   52.4920   66.4990 C.ar    9  PHE9       -0.0003
     24  CE2       55.7480   51.5490   64.4090 C.ar    9  PHE9       -0.0003
     25  CZ        56.5260   52.4150   65.1390 C.ar    9  PHE9       -0.0000
     26  N         54.3660   64.3720   74.3060 N.3    49  TYR49      -0.1241
     27  CA        54.3030   65.4460   73.3470 C.3    49  TYR49       0.1605
     28  C         52.8840   65.8910   72.8730 C.2    49  TYR49       0.2264
     29  O         52.7650   66.9410   72.2710 O.2    49  TYR49      -0.2867
     30  CB        55.2310   65.1220   72.1570 C.3    49  TYR49       0.0534
     31  CG        54.6760   64.1150   71.1810 C.ar   49  TYR49      -0.0201
     32  CD1       54.0720   64.5490   69.9730 C.ar   49  TYR49      -0.0009
     33  CD2       54.7250   62.7440   71.4480 C.ar   49  TYR49      -0.0009
     34  CE1       53.5520   63.6460   69.0720 C.ar   49  TYR49       0.0417
     35  CE2       54.2290   61.8420   70.5600 C.ar   49  TYR49       0.0417
     36  CZ        53.6080   62.3060   69.3770 C.ar   49  TYR49       0.1957
     37  OH        53.1180   61.4190   68.4640 O.3    49  TYR49      -0.2866
     38  N         60.5430   51.5630   59.5450 N.3    86  ARG86      -0.1231
     39  CA        60.1390   51.0470   60.8470 C.3    86  ARG86       0.1694
     40  C         59.2620   49.8080   60.7020 C.2    86  ARG86       0.2591
     41  O         59.2660   48.9290   61.5640 O.2    86  ARG86      -0.2718
     42  CB        59.4000   52.1240   61.6440 C.3    86  ARG86       0.0321
     43  CG        60.2710   53.3010   62.0520 C.3    86  ARG86       0.0489
     44  CD        59.5190   54.2530   62.9680 C.3    86  ARG86       0.2205
     45  NE        58.1560   54.4970   62.5030 N.pl3  86  ARG86      -0.0865
     46  CZ        57.2700   55.2480   63.1490 C.cat  86  ARG86       0.5346
     47  NH1       57.6010   55.8320   64.2920 N.pl3  86  ARG86       0.1354
     48  NH2       56.0520   55.4150   62.6510 N.pl3  86  ARG86       0.1354
     49  N         58.5120   49.7450   59.6070 N.am   87  ARG87      -0.1980
     50  CA        57.7330   48.5570   59.2790 C.3    87  ARG87       0.1597
     51  C         57.3850   48.5170   57.7950 C.2    87  ARG87       0.2287
     52  O         57.5120   49.5190   57.0910 O.2    87  ARG87      -0.2864
     53  CB        56.4560   48.5050   60.1200 C.3    87  ARG87       0.0334
     54  CG        55.8380   49.8660   60.3940 C.3    87  ARG87       0.0492
     55  CD        54.5830   49.7410   61.2430 C.3    87  ARG87       0.2205
     56  NE        54.0810   51.0440   61.6720 N.pl3  87  ARG87      -0.0865
     57  CZ        52.9220   51.5640   61.2830 C.cat  87  ARG87       0.5346
     58  NH1       52.1380   50.8910   60.4510 N.pl3  87  ARG87       0.1354
     59  NH2       52.5460   52.7560   61.7240 N.pl3  87  ARG87       0.1354
     60  N         50.1140   55.2360   74.1090 N.3   119  TYR119     -0.1241
     61  CA        49.0960   55.9810   73.3550 C.3   119  TYR119      0.1605
     62  C         47.6950   55.5800   73.8070 C.2   119  TYR119      0.2264
     63  O         47.4540   54.4500   74.1730 O.2   119  TYR119     -0.2867
     64  CB        49.2280   55.7320   71.8460 C.3   119  TYR119      0.0534
     65  CG        50.3090   56.5280   71.1090 C.ar  119  TYR119     -0.0201
     66  CD1       51.3590   57.1020   71.7930 C.ar  119  TYR119     -0.0009
     67  CD2       50.3200   56.6010   69.6890 C.ar  119  TYR119     -0.0009
     68  CE1       52.3960   57.8300   71.1070 C.ar  119  TYR119      0.0417
     69  CE2       51.3380   57.3120   68.9910 C.ar  119  TYR119      0.0417
     70  CZ        52.3640   57.9310   69.7280 C.ar  119  TYR119      0.1957
     71  OH        53.3850   58.6050   69.1210 O.3   119  TYR119     -0.2866
     72  N         45.2770   54.9990   68.9190 N.3   124  CYS124     -0.1235
     73  CA        45.6200   53.7490   68.2560 C.3   124  CYS124      0.1677
     74  C         44.5660   53.3580   67.2080 C.2   124  CYS124      0.2270
     75  O         44.9120   52.9500   66.1050 O.2   124  CYS124     -0.2867
     76  CB        45.8480   52.6180   69.2700 C.3   124  CYS124      0.0956
     77  SG        47.3300   52.8380   70.2620 S.3   124  CYS124     -0.0801
     78  N         44.8560   55.6550   64.0390 N.3   127  GLU127     -0.1245
     79  CA        45.8970   55.2690   63.0770 C.3   127  GLU127      0.1567
     80  C         45.5770   53.9800   62.3540 C.2   127  GLU127      0.2260
     81  O         45.9560   53.8310   61.1950 O.2   127  GLU127     -0.2867
     82  CB        47.2470   55.1320   63.7520 C.3   127  GLU127      0.0388
     83  CG        47.7780   56.4250   64.3390 C.3   127  GLU127      0.1160
     84  CD        49.0900   56.2160   65.0840 C.2   127  GLU127      0.3649
     85  OE1       49.9130   55.3380   64.6290 O.co2 127  GLU127     -0.2457
     86  OE2       49.2940   56.9460   66.0990 O.co2 127  GLU127     -0.2457
     87  N         53.1360   51.6520   73.1620 N.3   150  ILE150     -0.1245
     88  CA        53.5960   51.7130   71.7510 C.3   150  ILE150      0.1561
     89  C         55.1210   51.5830   71.5880 C.2   150  ILE150      0.2260
     90  O         55.6470   51.2500   70.5100 O.2   150  ILE150     -0.2867
     91  CB        53.0530   52.9370   70.9640 C.3   150  ILE150      0.0252
     92  CG1       53.6320   54.2540   71.4850 C.3   150  ILE150      0.0019
     93  CG2       51.5240   52.9440   70.8630 C.3   150  ILE150      0.0019
     94  CD1       54.2620   55.0710   70.3320 C.3   150  ILE150      0.0001
     95  N         60.9600   61.3030   63.1250 N.3   166  THR166     -0.1218
     96  CA        59.7330   60.8780   63.7940 C.3   166  THR166      0.1862
     97  C         58.7890   62.0600   63.7810 C.2   166  THR166      0.2287
     98  O         57.6710   61.9280   63.3500 O.2   166  THR166     -0.2866
     99  CB        59.9400   60.3460   65.2690 C.3   166  THR166      0.1770
    100  OG1       61.1620   59.5730   65.3820 O.3   166  THR166     -0.2211
    101  CG2       58.7330   59.4330   65.6900 C.3   166  THR166      0.0375
    102  N         57.6630   62.7050   60.1130 N.3   169  ARG169     -0.1231
    103  CA        56.6520   61.7130   59.7050 C.3   169  ARG169      0.1694
    104  C         55.2830   61.8330   60.4510 C.2   169  ARG169      0.2592
    105  O         54.2370   61.4560   59.8830 O.2   169  ARG169     -0.2718
    106  CB        57.2280   60.2870   59.7510 C.3   169  ARG169      0.0321
    107  CG        56.2530   59.1390   59.4110 C.3   169  ARG169      0.0489
    108  CD        56.9890   57.8050   59.4990 C.3   169  ARG169      0.2205
    109  NE        57.7760   57.8360   60.7170 N.pl3 169  ARG169     -0.0865
    110  CZ        59.0060   57.3770   60.8680 C.cat 169  ARG169      0.5346
    111  NH1       59.6570   56.8030   59.8570 N.pl3 169  ARG169      0.1354
    112  NH2       59.5850   57.5420   62.0540 N.pl3 169  ARG169      0.1354
    113  N         55.3070   62.3430   61.6940 N.am  170  ASN170     -0.1974
    114  CA        54.1040   62.5530   62.5010 C.3   170  ASN170      0.1688
    115  C         53.2010   63.5850   61.8290 C.2   170  ASN170      0.2292
    116  O         52.0220   63.7120   62.1270 O.2   170  ASN170     -0.2864
    117  CB        54.5060   63.0240   63.8980 C.3   170  ASN170      0.1181
    118  CG        54.7170   61.8900   64.8940 C.2   170  ASN170      0.2629
    119  OD1       54.6380   60.7320   64.5490 O.2   170  ASN170     -0.2716
    120  ND2       54.9990   62.2500   66.1560 N.am  170  ASN170     -0.0877
    121  N         52.5820   56.1430   58.4930 N.3   176  GLY176     -0.1210
    122  CA        52.0130   56.8580   59.6060 C.3   176  GLY176      0.1956
    123  C         52.6830   56.8720   60.9780 C.2   176  GLY176      0.2612
    124  O         52.8980   55.9170   61.6290 O.2   176  GLY176     -0.2717
    125  N         53.0510   58.0350   61.4100 N.am  177  GLY177     -0.1942
    126  CA        52.3430   59.2460   61.2920 C.3   177  GLY177      0.2014
    127  C         51.3490   59.2080   62.4280 C.2   177  GLY177      0.2639
    128  O         50.3660   58.4940   62.3240 O.2   177  GLY177     -0.2714
    129  N         51.6000   59.9540   63.5080 N.am  178  SER178     -0.1949
    130  CA        50.5890   60.1350   64.5460 C.3   178  SER178      0.1924
    131  C         49.5660   61.2290   64.1460 C.2   178  SER178      0.2314
    132  O         48.4520   61.2970   64.6530 O.2   178  SER178     -0.2863
    133  CB        51.2500   60.4000   65.8970 C.3   178  SER178      0.2116
    134  OG        51.6000   61.7580   66.0850 O.3   178  SER178     -0.2180
@<TRIPOS>BOND
     1    52    51    2
     2    51    50    1
     3   121   122    1
     4    50    49    1
     5    50    53    1
     6   107   108    1
     7   107   106    1
     8   108   109    1
     9    38    39    1
    10   122   123    1
    11    49    40   am
    12   103   106    1
    13   103   102    1
    14   103   104    1
    15   111   110    1
    16   105   104    2
    17    53    54    1
    18    54    55    1
    19   104   113   am
    20    58    57    1
    21    40    39    1
    22    40    41    2
    23   109   110    2
    24    39    42    1
    25   110   112    1
    26   123   125   am
    27   123   124    2
    28    81    80    2
    29    55    56    1
    30    57    56    2
    31    57    59    1
    32   126   125    1
    33   126   127    1
    34    42    43    1
    35   113   114    1
    36   115   116    2
    37   115   114    1
    38    43    44    1
    39   128   127    2
    40    80    79    1
    41   127   129   am
    42   114   117    1
    43    45    44    1
    44    45    46    2
    45    48    46    1
    46    79    82    1
    47    79    78    1
    48    95    96    1
    49    46    47    1
    50    98    97    2
    51   129   130    1
    52    82    83    1
    53    97    96    1
    54    96    99    1
    55   117   118    1
    56   131   130    1
    57   131   132    2
    58    83    84    1
    59    24    22   ar
    60    24    25   ar
    61   130   133    1
    62   119   118    2
    63    85    84   ar
    64   118   120   am
    65    22    20   ar
    66    84    86   ar
    67    25    23   ar
    68    99   100    1
    69    99   101    1
    70    14    13    1
    71   133   134    1
    72    75    74    2
    73    20    19    1
    74    20    21   ar
    75    13    10    1
    76    23    21   ar
    77    16    19    1
    78    16    15    1
    79    16    17    1
    80    12    11    2
    81    74    73    1
    82    18    17    2
    83    15    11   am
    84    11    10    1
    85    10     9    1
    86     7     6    2
    87    73    72    1
    88    73    76    1
    89    37    36    1
    90     8     6   am
    91     9     3   am
    92     6     5    1
    93    69    67   ar
    94    69    70   ar
    95    34    36   ar
    96    34    32   ar
    97    71    70    1
    98    76    77    1
    99    36    35   ar
   100    67    65   ar
   101    70    68   ar
   102     3     4    2
   103     3     2    1
   104    32    31   ar
   105    94    92    1
   106     5     2    1
   107    90    89    2
   108    35    33   ar
   109     2     1    1
   110    93    91    1
   111    91    92    1
   112    91    88    1
   113    68    66   ar
   114    65    66   ar
   115    65    64    1
   116    31    33   ar
   117    31    30    1
   118    89    88    1
   119    88    87    1
   120    64    61    1
   121    30    27    1
   122    29    28    2
   123    28    27    1
   124    27    26    1
   125    61    62    1
   126    61    60    1
   127    62    63    2
