@<TRIPOS>MOLECULE
tmp/2pd3D01.pdb
 162 154 0 0 0
SMALL
GASTEIGER

@<TRIPOS>ATOM
      1  N         52.8950   18.7830    6.9220 N.3    90  SER90      -0.1202
      2  CA        52.4840   17.4080    7.1460 C.3    90  SER90       0.2020
      3  C         53.5570   16.7390    8.0300 C.2    90  SER90       0.2619
      4  O         54.3280   15.9040    7.5620 O.2    90  SER90      -0.2717
      5  CB        52.3860   16.7080    5.7740 C.3    90  SER90       0.2103
      6  OG        51.4510   15.6480    5.7390 O.3    90  SER90      -0.2182
      7  N         53.6190   17.1340    9.3000 N.am   91  VAL91      -0.1965
      8  CA        54.5890   16.5840   10.2390 C.3    91  VAL91       0.1727
      9  C         53.9690   16.3880   11.6190 C.2    91  VAL91       0.2616
     10  O         53.1200   17.1670   12.0530 O.2    91  VAL91      -0.2715
     11  CB        55.8640   17.4910   10.3420 C.3    91  VAL91       0.0290
     12  CG1       56.6580   17.1910   11.6220 C.3    91  VAL91       0.0023
     13  CG2       56.7640   17.2430    9.1300 C.3    91  VAL91       0.0023
     14  N         54.3950   15.3230   12.2980 N.am   92  ALA92      -0.1963
     15  CA        53.9040   14.9940   13.6350 C.3    92  ALA92       0.1728
     16  C         54.6880   13.8420   14.2200 C.2    92  ALA92       0.2616
     17  O         54.9540   12.8520   13.5420 O.2    92  ALA92      -0.2715
     18  CB        52.4310   14.6140   13.5840 C.3    92  ALA92       0.0334
     19  N         55.0560   13.9700   15.4880 N.am   93  PHE93      -0.1960
     20  CA        55.7790   12.9010   16.1590 C.3    93  PHE93       0.1771
     21  C         55.5440   12.8820   17.6560 C.2    93  PHE93       0.2619
     22  O         55.4030   13.9280   18.2920 O.2    93  PHE93      -0.2715
     23  CB        57.2780   13.0030   15.8960 C.3    93  PHE93       0.0574
     24  CG        58.0650   11.8520   16.4670 C.ar   93  PHE93      -0.0200
     25  CD1       58.0530   10.5980   15.8470 C.ar   93  PHE93      -0.0042
     26  CD2       58.7990   12.0120   17.6390 C.ar   93  PHE93      -0.0042
     27  CE1       58.7660    9.5130   16.3900 C.ar   93  PHE93      -0.0003
     28  CE2       59.5150   10.9350   18.1980 C.ar   93  PHE93      -0.0003
     29  CZ        59.4990    9.6830   17.5700 C.ar   93  PHE93      -0.0000
     30  N         55.5040   11.6710   18.2050 N.am   94  ALA94      -0.1977
     31  CA        55.3280   11.4490   19.6350 C.3    94  ALA94       0.1597
     32  C         55.9600   10.1000   19.9460 C.2    94  ALA94       0.2287
     33  O         55.8880    9.1730   19.1430 O.2    94  ALA94      -0.2864
     34  CB        53.8530   11.4420   20.0170 C.3    94  ALA94       0.0319
     35  N         56.7430    6.3640   20.9650 N.3    96  LYS96      -0.1245
     36  CA        55.9700    5.1310   20.7940 C.3    96  LYS96       0.1561
     37  C         55.1250    4.7580   22.0140 C.2    96  LYS96       0.2260
     38  O         54.0080    4.2530   21.8820 O.2    96  LYS96      -0.2867
     39  CB        56.9230    3.9730   20.4910 C.3    96  LYS96       0.0271
     40  CG        56.3160    2.8250   19.6970 C.3    96  LYS96       0.0035
     41  CD        56.5420    3.0180   18.1990 C.3    96  LYS96       0.0206
     42  CE        56.2570    1.7340   17.4260 C.3    96  LYS96       0.1093
     43  NZ        56.6940    1.8510   16.0120 N.3    96  LYS96      -0.1314
     44  N         51.8300    6.8010   22.5900 N.3    99  LEU99      -0.1245
     45  CA        50.6960    6.3760   21.7850 C.3    99  LEU99       0.1561
     46  C         50.1410    4.9920   22.0790 C.2    99  LEU99       0.2260
     47  O         49.4720    4.3930   21.2470 O.2    99  LEU99      -0.2867
     48  CB        51.0130    6.4800   20.3020 C.3    99  LEU99       0.0270
     49  CG        50.5690    7.8200   19.7140 C.3    99  LEU99       0.0019
     50  CD1       51.4530    8.9390   20.2330 C.3    99  LEU99       0.0001
     51  CD2       50.6350    7.7390   18.2090 C.3    99  LEU99       0.0001
     52  N         45.3770   17.0260   10.3760 N.3   143  SER143     -0.1202
     53  CA        44.9060   16.6760   11.7040 C.3   143  SER143      0.2020
     54  C         44.0690   15.4050   11.6510 C.2   143  SER143      0.2618
     55  O         43.8860   14.8050   10.5850 O.2   143  SER143     -0.2717
     56  CB        44.0920   17.8190   12.3200 C.3   143  SER143      0.2103
     57  OG        43.5970   17.4600   13.5980 O.3   143  SER143     -0.2182
     58  N         43.5500   15.0070   12.8070 N.am  144  TYR144     -0.1975
     59  CA        42.7850   13.7860   12.9010 C.3   144  TYR144      0.1639
     60  C         41.6270   13.9330   13.8790 C.2   144  TYR144      0.2290
     61  O         41.7370   14.6530   14.8660 O.2   144  TYR144     -0.2864
     62  CB        43.7320   12.6560   13.3350 C.3   144  TYR144      0.0560
     63  CG        43.0700   11.3060   13.4540 C.ar  144  TYR144     -0.0198
     64  CD1       42.4480   10.7120   12.3530 C.ar  144  TYR144     -0.0009
     65  CD2       43.0640   10.6190   14.6700 C.ar  144  TYR144     -0.0009
     66  CE1       41.8300    9.4720   12.4620 C.ar  144  TYR144      0.0417
     67  CE2       42.4510    9.3740   14.7910 C.ar  144  TYR144      0.0417
     68  CZ        41.8410    8.8070   13.6880 C.ar  144  TYR144      0.1957
     69  OH        41.2370    7.5720   13.8040 O.3   144  TYR144     -0.2866
     70  N         45.1530    7.1820   20.9470 N.3   154  TYR154     -0.1241
     71  CA        45.6260    8.3980   20.2970 C.3   154  TYR154      0.1605
     72  C         46.2200    9.3700   21.3110 C.2   154  TYR154      0.2264
     73  O         47.2050   10.0520   21.0290 O.2   154  TYR154     -0.2867
     74  CB        44.4890    9.0710   19.5260 C.3   154  TYR154      0.0534
     75  CG        44.9550    9.9390   18.3790 C.ar  154  TYR154     -0.0201
     76  CD1       45.8760    9.4650   17.4540 C.ar  154  TYR154     -0.0009
     77  CD2       44.4750   11.2320   18.2220 C.ar  154  TYR154     -0.0009
     78  CE1       46.3050   10.2540   16.4040 C.ar  154  TYR154      0.0417
     79  CE2       44.8990   12.0290   17.1750 C.ar  154  TYR154      0.0417
     80  CZ        45.8140   11.5350   16.2690 C.ar  154  TYR154      0.1957
     81  OH        46.2390   12.3230   15.2250 O.3   154  TYR154     -0.2866
     82  N         48.7350   12.6590   21.2430 N.3   157  MET157     -0.1245
     83  CA        48.6850   13.1300   19.8710 C.3   157  MET157      0.1570
     84  C         47.3510   13.8480   19.7050 C.2   157  MET157      0.2261
     85  O         47.2420   14.8180   18.9510 O.2   157  MET157     -0.2867
     86  CB        48.8030   11.9790   18.8650 C.3   157  MET157      0.0387
     87  CG        49.0070   12.4650   17.4340 C.3   157  MET157      0.0595
     88  SD        50.4230   13.5800   17.2920 S.3   157  MET157     -0.1393
     89  CE        51.6720   12.5310   16.5350 C.3   157  MET157      0.0692
     90  N         46.9440   17.6520   18.1850 N.3   161  LYS161     -0.1245
     91  CA        46.0490   17.9560   17.0810 C.3   161  LYS161      0.1561
     92  C         44.9650   18.9730   17.4530 C.2   161  LYS161      0.2260
     93  O         44.4670   19.7100   16.6020 O.2   161  LYS161     -0.2867
     94  CB        45.4070   16.6670   16.5640 C.3   161  LYS161      0.0271
     95  CG        46.4040   15.6840   15.9680 C.3   161  LYS161      0.0035
     96  CD        47.2580   16.3600   14.9010 C.3   161  LYS161      0.0206
     97  CE        48.0350   15.3370   14.0820 C.3   161  LYS161      0.1093
     98  NZ        48.7500   15.9850   12.9600 N.3   161  LYS161     -0.1314
     99  N         41.1160   10.7770    7.2040 N.3   188  GLY188     -0.1210
    100  CA        40.7050    9.5670    7.8930 C.3   188  GLY188      0.1940
    101  C         41.8890    8.6190    7.8930 C.2   188  GLY188      0.2454
    102  O         42.8690    8.8960    7.1860 O.2   188  GLY188     -0.2732
    103  N         41.8320    7.4960    8.6400 N.am  189  PRO189     -0.2717
    104  CA        42.9560    6.5510    8.6750 C.3   189  PRO189      0.1535
    105  C         43.3730    6.1430    7.2630 C.2   189  PRO189      0.2598
    106  O         42.5220    5.9560    6.3890 O.2   189  PRO189     -0.2715
    107  CB        42.4010    5.3800    9.4880 C.3   189  PRO189      0.0310
    108  CG        40.9510    5.3950    9.1350 C.3   189  PRO189      0.0237
    109  CD        40.6180    6.8790    9.2000 C.3   189  PRO189      0.0939
    110  N         44.6850    6.0360    7.0520 N.am  190  ILE190     -0.1978
    111  CA        45.2500    5.6550    5.7610 C.3   190  ILE190      0.1596
    112  C         46.6720    5.1320    5.9630 C.2   190  ILE190      0.2287
    113  O         47.4230    5.6590    6.7840 O.2   190  ILE190     -0.2864
    114  CB        45.2520    6.8540    4.7740 C.3   190  ILE190      0.0276
    115  CG1       45.8620    6.4350    3.4470 C.3   190  ILE190      0.0022
    116  CG2       46.0160    8.0240    5.3670 C.3   190  ILE190      0.0022
    117  CD1       45.7100    7.4690    2.3600 C.3   190  ILE190      0.0001
    118  N         50.3830    4.6390    5.9510 N.3   192  THR192     -0.1218
    119  CA        51.6110    5.3920    5.7350 C.3   192  THR192      0.1862
    120  C         52.7070    4.8280    6.6450 C.2   192  THR192      0.2287
    121  O         52.4440    3.9800    7.4960 O.2   192  THR192     -0.2866
    122  CB        51.4260    6.8990    6.0530 C.3   192  THR192      0.1770
    123  OG1       51.1290    7.0600    7.4480 O.3   192  THR192     -0.2211
    124  CG2       50.2950    7.4980    5.2090 C.3   192  THR192      0.0375
    125  N         54.4020    6.2000    9.1850 N.3   194  ALA194     -0.1231
    126  CA        54.0590    6.4950   10.5730 C.3   194  ALA194      0.1694
    127  C         52.8820    5.6840   11.1200 C.2   194  ALA194      0.2592
    128  O         52.9220    5.2080   12.2520 O.2   194  ALA194     -0.2718
    129  CB        53.7720    7.9890   10.7270 C.3   194  ALA194      0.0304
    130  N         51.8300    5.5290   10.3290 N.am  195  SER195     -0.1952
    131  CA        50.6580    4.7760   10.7800 C.3   195  SER195      0.1924
    132  C         50.9570    3.2810   10.8960 C.2   195  SER195      0.2314
    133  O         50.5860    2.6430   11.8800 O.2   195  SER195     -0.2863
    134  CB        49.4930    4.9920    9.8160 C.3   195  SER195      0.2116
    135  OG        49.8910    4.6590    8.5010 O.3   195  SER195     -0.2180
    136  N         51.8510    1.9700   14.0870 N.3   198  ILE198     -0.1245
    137  CA        50.9030    2.1780   15.1790 C.3   198  ILE198      0.1561
    138  C         50.1850    0.8910   15.5940 C.2   198  ILE198      0.2260
    139  O         49.8170    0.0610   14.7580 O.2   198  ILE198     -0.2867
    140  CB        49.8640    3.2580   14.8000 C.3   198  ILE198      0.0252
    141  CG1       50.5540    4.6180   14.6960 C.3   198  ILE198      0.0019
    142  CG2       48.7390    3.3110   15.8360 C.3   198  ILE198      0.0019
    143  CD1       49.6520    5.7210   14.1980 C.3   198  ILE198      0.0001
    144  N         46.5010   -0.8880   14.1390 N.3   201  PHE201     -0.1241
    145  CA        46.0180    0.0370   13.1270 C.3   201  PHE201      0.1605
    146  C         45.0490   -0.5490   12.1170 C.2   201  PHE201      0.2264
    147  O         44.1920    0.1690   11.6040 O.2   201  PHE201     -0.2867
    148  CB        47.1790    0.7020   12.3840 C.3   201  PHE201      0.0534
    149  CG        46.7700    1.9470   11.6340 C.ar  201  PHE201     -0.0203
    150  CD1       46.5520    1.9160   10.2610 C.ar  201  PHE201     -0.0042
    151  CD2       46.5500    3.1430   12.3170 C.ar  201  PHE201     -0.0042
    152  CE1       46.1170    3.0590    9.5770 C.ar  201  PHE201     -0.0003
    153  CE2       46.1160    4.2890   11.6420 C.ar  201  PHE201     -0.0003
    154  CZ        45.8990    4.2440   10.2710 C.ar  201  PHE201     -0.0000
    155  N         41.5080   -0.0170   13.4590 N.3   204  ILE204     -0.1245
    156  CA        41.0370    1.3570   13.2970 C.3   204  ILE204      0.1561
    157  C         40.5490    1.5110   11.8570 C.2   204  ILE204      0.2260
    158  O         39.4810    2.0730   11.5940 O.2   204  ILE204     -0.2867
    159  CB        42.1690    2.3800   13.4990 C.3   204  ILE204      0.0252
    160  CG1       42.9970    2.0370   14.7460 C.3   204  ILE204      0.0019
    161  CG2       41.5730    3.7770   13.6110 C.3   204  ILE204      0.0019
    162  CD1       42.4700    2.6290   16.0460 C.3   204  ILE204      0.0001
@<TRIPOS>BOND
     1   117   115    1
     2   115   114    1
     3   114   116    1
     4   114   111    1
     5   124   122    1
     6   119   118    1
     7   119   122    1
     8   119   120    1
     9     6     5    1
    10   111   112    1
    11   111   110    1
    12     5     2    1
    13   112   113    2
    14   122   123    1
    15   106   105    2
    16   120   121    2
    17     1     2    1
    18   110   105   am
    19     2     3    1
    20   102   101    2
    21    99   100    1
    22   105   104    1
    23     4     3    2
    24   100   101    1
    25   101   103   am
    26     3     7   am
    27   135   134    1
    28   103   104    1
    29   103   109    1
    30   104   107    1
    31    13    11    1
    32   108   109    1
    33   108   107    1
    34   125   126    1
    35     7     8    1
    36   152   150   ar
    37   152   154   ar
    38   134   131    1
    39     8    11    1
    40     8     9    1
    41   150   149   ar
    42   154   153   ar
    43   130   131    1
    44   130   127   am
    45    11    12    1
    46    52    53    1
    47   126   129    1
    48   126   127    1
    49    55    54    2
    50   131   132    1
    51   132   133    2
    52   127   128    2
    53   158   157    2
    54   147   146    2
    55     9    10    2
    56     9    14   am
    57   149   151   ar
    58   149   148    1
    59   153   151   ar
    60    54    53    1
    61    54    58   am
    62    53    56    1
    63   157   156    1
    64   146   145    1
    65    14    15    1
    66    56    57    1
    67    64    66   ar
    68    64    63   ar
    69   148   145    1
    70    66    68   ar
    71    58    59    1
    72    59    62    1
    73    59    60    1
    74    98    97    1
    75   145   144    1
    76   156   155    1
    77   156   159    1
    78    62    63    1
    79    63    65   ar
    80   159   161    1
    81   159   160    1
    82    17    16    2
    83    18    15    1
    84    15    16    1
    85    68    69    1
    86    68    67   ar
    87    60    61    2
    88    97    96    1
    89   136   137    1
    90   143   141    1
    91    16    19   am
    92    65    67   ar
    93   141   140    1
    94   160   162    1
    95   139   138    2
    96   140   137    1
    97   140   142    1
    98    96    95    1
    99   137   138    1
   100    81    80    1
   101    19    20    1
   102    25    27   ar
   103    25    24   ar
   104    23    20    1
   105    23    24    1
   106    95    94    1
   107    43    42    1
   108    20    21    1
   109    80    78   ar
   110    80    79   ar
   111    27    29   ar
   112    78    76   ar
   113    24    26   ar
   114    89    88    1
   115    94    91    1
   116    93    92    2
   117    91    92    1
   118    91    90    1
   119    79    77   ar
   120    88    87    1
   121    42    41    1
   122    87    86    1
   123    76    75   ar
   124    29    28   ar
   125    26    28   ar
   126    21    30   am
   127    21    22    2
   128    41    40    1
   129    30    31    1
   130    51    49    1
   131    77    75   ar
   132    75    74    1
   133    86    83    1
   134    85    84    2
   135    33    32    2
   136    74    71    1
   137    31    32    1
   138    31    34    1
   139    40    39    1
   140    84    83    1
   141    49    50    1
   142    49    48    1
   143    83    82    1
   144    71    70    1
   145    71    72    1
   146    48    45    1
   147    39    36    1
   148    36    35    1
   149    36    37    1
   150    73    72    2
   151    47    46    2
   152    45    46    1
   153    45    44    1
   154    38    37    2
