@<TRIPOS>MOLECULE
tmp/2pdbA01.pdb
 201 208 0 0 0
SMALL
GASTEIGER

@<TRIPOS>ATOM
      1  N         21.7300   20.3380   -9.5350 N.3    20  TRP20      -0.1241
      2  CA        22.2400   18.9680   -9.5690 C.3    20  TRP20       0.1605
      3  C         23.6770   18.9750  -10.1330 C.2    20  TRP20       0.2264
      4  O         23.8950   19.5650  -11.1780 O.2    20  TRP20      -0.2867
      5  CB        21.3320   18.0520  -10.3870 C.3    20  TRP20       0.0550
      6  CG        21.8410   16.6680  -10.6610 C.ar   20  TRP20       0.0003
      7  CD1       22.4810   15.8430   -9.7730 C.ar   20  TRP20       0.0946
      8  CD2       21.7710   15.9300  -11.8810 C.ar   20  TRP20       0.0152
      9  NE1       22.8100   14.6330  -10.3870 N.ar   20  TRP20      -0.2442
     10  CE2       22.3770   14.6900  -11.6820 C.ar   20  TRP20       0.0810
     11  CE3       21.2480   16.2310  -13.1520 C.ar   20  TRP20       0.0012
     12  CZ2       22.4750   13.7370  -12.6990 C.ar   20  TRP20       0.0191
     13  CZ3       21.3340   15.2930  -14.1620 C.ar   20  TRP20       0.0001
     14  CH2       21.9480   14.0490  -13.9130 C.ar   20  TRP20       0.0015
     15  N         18.2490   14.7000   -2.8690 N.3    47  VAL47      -0.1231
     16  CA        19.1800   13.7580   -3.5000 C.3    47  VAL47       0.1692
     17  C         20.3990   14.4410   -4.0980 C.2    47  VAL47       0.2592
     18  O         21.3950   13.7490   -4.4190 O.2    47  VAL47      -0.2718
     19  CB        18.4310   12.9040   -4.5540 C.3    47  VAL47       0.0266
     20  CG1       18.2960   13.6520   -5.8550 C.3    47  VAL47       0.0020
     21  CG2       19.1580   11.5790   -4.7830 C.3    47  VAL47       0.0020
     22  N         20.4150   15.7640   -4.2470 N.am   48  TYR48      -0.1976
     23  CA        21.5840   16.4470   -4.7930 C.3    48  TYR48       0.1639
     24  C         22.6930   16.6450   -3.7530 C.2    48  TYR48       0.2290
     25  O         23.7920   17.0680   -4.1180 O.2    48  TYR48      -0.2864
     26  CB        21.2260   17.7820   -5.4760 C.3    48  TYR48       0.0560
     27  CG        20.2070   17.7050   -6.5710 C.ar   48  TYR48      -0.0198
     28  CD1       19.9260   16.4930   -7.2060 C.ar   48  TYR48      -0.0009
     29  CD2       19.5130   18.8390   -6.9970 C.ar   48  TYR48      -0.0009
     30  CE1       18.9870   16.4380   -8.2190 C.ar   48  TYR48       0.0417
     31  CE2       18.5680   18.7740   -8.0060 C.ar   48  TYR48       0.0417
     32  CZ        18.3070   17.5740   -8.6130 C.ar   48  TYR48       0.1957
     33  OH        17.3650   17.4890   -9.6150 O.3    48  TYR48      -0.2866
     34  N         12.5630   12.5640   -2.3870 N.3    79  TRP79      -0.1227
     35  CA        13.2740   11.4920   -3.0660 C.3    79  TRP79       0.1737
     36  C         12.5310   10.1600   -2.9710 C.2    79  TRP79       0.2595
     37  O         11.6050    9.9690   -2.1770 O.2    79  TRP79      -0.2718
     38  CB        14.7330   11.4570   -2.5180 C.3    79  TRP79       0.0564
     39  CG        15.4670   10.3510   -3.2310 C.ar   79  TRP79       0.0003
     40  CD1       15.9570    9.1770   -2.7280 C.ar   79  TRP79       0.0946
     41  CD2       15.7260   10.3400   -4.6340 C.ar   79  TRP79       0.0152
     42  NE1       16.5160    8.4620   -3.7430 N.ar   79  TRP79      -0.2442
     43  CE2       16.4070    9.1380   -4.9320 C.ar   79  TRP79       0.0810
     44  CE3       15.4850   11.2200   -5.6980 C.ar   79  TRP79       0.0012
     45  CZ2       16.8220    8.8130   -6.2150 C.ar   79  TRP79       0.0191
     46  CZ3       15.9040   10.8870   -6.9690 C.ar   79  TRP79       0.0001
     47  CH2       16.5840    9.6840   -7.2490 C.ar   79  TRP79       0.0015
     48  N         12.8460    9.1900   -3.8480 N.am   80  CYS80      -0.1970
     49  CA        12.2300    7.9220   -4.0960 C.3    80  CYS80       0.1712
     50  C         12.1580    7.0250   -2.8740 C.2    80  CYS80       0.2296
     51  O         11.2230    6.2270   -2.8180 O.2    80  CYS80      -0.2864
     52  CB        12.9800    7.1840   -5.2370 C.3    80  CYS80       0.0983
     53  SG        12.8870    8.1580   -6.7870 S.3    80  CYS80      -0.0798
     54  N          9.7240   13.5700   -6.8340 N.3   110  HIS110     -0.1226
     55  CA        10.8710   13.6220   -7.7280 C.3   110  HIS110      0.1752
     56  C         10.7740   12.6700   -8.9230 C.2   110  HIS110      0.2596
     57  O         11.0810   13.0400  -10.0540 O.2   110  HIS110     -0.2718
     58  CB        12.1310   13.3670   -6.9020 C.3   110  HIS110      0.0759
     59  CG        13.3790   13.9170   -7.5290 C.ar  110  HIS110      0.0818
     60  ND1       14.4400   14.3350   -6.7720 N.ar  110  HIS110     -0.2268
     61  CD2       13.7560   14.1240   -8.8020 C.ar  110  HIS110      0.1154
     62  CE1       15.4000   14.7800   -7.5300 C.ar  110  HIS110      0.1986
     63  NE2       15.0460   14.6640   -8.8010 N.ar  110  HIS110     -0.2212
     64  N         10.3770   11.4290   -8.6390 N.am  111  TRP111     -0.1963
     65  CA        10.1430   10.3970   -9.6480 C.3   111  TRP111      0.1756
     66  C          8.8870    9.6210   -9.2460 C.2   111  TRP111      0.2461
     67  O          8.6090    9.5370   -8.0480 O.2   111  TRP111     -0.2730
     68  CB        11.3220    9.4290   -9.8230 C.3   111  TRP111      0.0590
     69  CG        12.5600   10.0820  -10.3520 C.ar  111  TRP111      0.0006
     70  CD1       13.4760   10.7610   -9.6070 C.ar  111  TRP111      0.0946
     71  CD2       13.0270   10.1250  -11.6990 C.ar  111  TRP111      0.0152
     72  NE1       14.4870   11.2310  -10.4050 N.ar  111  TRP111     -0.2442
     73  CE2       14.2310   10.8520  -11.6970 C.ar  111  TRP111      0.0810
     74  CE3       12.5290    9.6150  -12.8970 C.ar  111  TRP111      0.0012
     75  CZ2       14.9800   11.1050  -12.8510 C.ar  111  TRP111      0.0191
     76  CZ3       13.2570    9.8530  -14.0450 C.ar  111  TRP111      0.0001
     77  CH2       14.4570   10.5840  -14.0000 C.ar  111  TRP111      0.0015
     78  N          8.1290    9.0610  -10.1860 N.am  112  PRO112     -0.2716
     79  CA         6.9080    8.3340   -9.7530 C.3   112  PRO112      0.1536
     80  C          7.1930    7.0350   -9.0270 C.2   112  PRO112      0.2599
     81  O          6.2590    6.4640   -8.4530 O.2   112  PRO112     -0.2715
     82  CB         6.2160    8.0790  -11.0800 C.3   112  PRO112      0.0310
     83  CG         7.2680    8.1300  -12.1290 C.3   112  PRO112      0.0237
     84  CD         8.3330    9.0900  -11.6410 C.3   112  PRO112      0.0939
     85  N          8.4240    6.5460   -9.0430 N.am  113  THR113     -0.1951
     86  CA         8.8330    5.2940   -8.4640 C.3   113  THR113      0.1897
     87  C          9.3000    5.3770   -7.0290 C.2   113  THR113      0.2313
     88  O         10.2430    6.1100   -6.6970 O.2   113  THR113     -0.2863
     89  CB        10.0090    4.6970   -9.2730 C.3   113  THR113      0.1794
     90  OG1       11.0480    5.6930   -9.3070 O.3   113  THR113     -0.2208
     91  CG2        9.6160    4.4060  -10.7000 C.3   113  THR113      0.0378
     92  N         11.3020    3.6370   -3.9590 N.3   115  PHE115     -0.1241
     93  CA        12.3840    2.7470   -3.6620 C.3   115  PHE115      0.1605
     94  C         12.4000    2.3250   -2.1990 C.2   115  PHE115      0.2264
     95  O         11.9120    3.0600   -1.3330 O.2   115  PHE115     -0.2867
     96  CB        13.7320    3.3960   -3.9940 C.3   115  PHE115      0.0534
     97  CG        14.0240    3.8230   -5.4230 C.ar  115  PHE115     -0.0203
     98  CD1       13.2560    3.4580   -6.4990 C.ar  115  PHE115     -0.0042
     99  CD2       15.1130    4.6370   -5.6580 C.ar  115  PHE115     -0.0042
    100  CE1       13.5570    3.8800   -7.7840 C.ar  115  PHE115     -0.0003
    101  CE2       15.4440    5.0660   -6.9240 C.ar  115  PHE115     -0.0003
    102  CZ        14.6460    4.7070   -7.9940 C.ar  115  PHE115     -0.0000
    103  N         19.8770    4.9220   -3.7270 N.3   122  PHE122     -0.1241
    104  CA        19.6650    4.0090   -4.8350 C.3   122  PHE122      0.1605
    105  C         19.8950    2.5640   -4.3820 C.2   122  PHE122      0.2264
    106  O         20.9380    1.9770   -4.7070 O.2   122  PHE122     -0.2867
    107  CB        20.5940    4.3100   -6.0020 C.3   122  PHE122      0.0534
    108  CG        20.2420    5.6290   -6.6960 C.ar  122  PHE122     -0.0203
    109  CD1       19.3700    5.6180   -7.7570 C.ar  122  PHE122     -0.0042
    110  CD2       20.8080    6.8080   -6.2620 C.ar  122  PHE122     -0.0042
    111  CE1       19.0400    6.7840   -8.4480 C.ar  122  PHE122     -0.0003
    112  CE2       20.4640    7.9740   -6.9370 C.ar  122  PHE122     -0.0003
    113  CZ        19.6000    7.9550   -7.9910 C.ar  122  PHE122     -0.0000
    114  N         13.8460   20.4760  -17.5530 N.3   209  TYR209     -0.1241
    115  CA        15.1690   20.2830  -16.9680 C.3   209  TYR209      0.1605
    116  C         16.1290   19.8070  -18.0330 C.2   209  TYR209      0.2264
    117  O         15.7540   19.3720  -19.1160 O.2   209  TYR209     -0.2867
    118  CB        15.0470   19.3220  -15.8120 C.3   209  TYR209      0.0534
    119  CG        14.9150   17.8400  -15.9020 C.ar  209  TYR209     -0.0201
    120  CD1       15.8000   16.9690  -16.5290 C.ar  209  TYR209     -0.0009
    121  CD2       13.8340   17.2010  -15.2780 C.ar  209  TYR209     -0.0009
    122  CE1       15.6630   15.6090  -16.6030 C.ar  209  TYR209      0.0417
    123  CE2       13.6770   15.8290  -15.3060 C.ar  209  TYR209      0.0417
    124  CZ        14.5950   15.0290  -15.9600 C.ar  209  TYR209      0.1957
    125  OH        14.4600   13.6780  -16.0010 O.3   209  TYR209     -0.2866
    126  N         26.7350   12.0270  -15.1980 N.3   218  PRO218     -0.2102
    127  CA        27.8540   11.1130  -14.9200 C.3   218  PRO218      0.1504
    128  C         27.9040    9.8960  -15.8360 C.2   218  PRO218      0.2575
    129  O         28.8870    9.1590  -15.7190 O.2   218  PRO218     -0.2718
    130  CB        27.6370   10.6710  -13.4700 C.3   218  PRO218      0.0282
    131  CG        26.2250   11.0110  -13.1490 C.3   218  PRO218      0.0208
    132  CD        25.7100   11.9980  -14.1390 C.3   218  PRO218      0.0893
    133  N         26.9530    9.6410  -16.7200 N.am  219  TRP219     -0.1977
    134  CA        26.9870    8.4320  -17.5420 C.3   219  TRP219      0.1640
    135  C         27.1770    8.7610  -19.0110 C.2   219  TRP219      0.2290
    136  O         26.9920    7.9390  -19.8960 O.2   219  TRP219     -0.2864
    137  CB        25.6840    7.6260  -17.3160 C.3   219  TRP219      0.0576
    138  CG        24.5140    8.5700  -17.3470 C.ar  219  TRP219      0.0006
    139  CD1       23.9090    9.0700  -18.4630 C.ar  219  TRP219      0.0946
    140  CD2       23.8120    9.1290  -16.2320 C.ar  219  TRP219      0.0152
    141  NE1       22.8590    9.9110  -18.1030 N.ar  219  TRP219     -0.2442
    142  CE2       22.8050    9.9490  -16.7540 C.ar  219  TRP219      0.0810
    143  CE3       23.9320    9.0190  -14.8450 C.ar  219  TRP219      0.0012
    144  CZ2       21.8990   10.6760  -15.9640 C.ar  219  TRP219      0.0191
    145  CZ3       23.0530    9.7280  -14.0590 C.ar  219  TRP219      0.0001
    146  CH2       22.0670   10.5360  -14.6180 C.ar  219  TRP219      0.0015
    147  N         18.2610   11.4550  -18.7900 N.3   298  CYS298     -0.1221
    148  CA        17.9090   10.9550  -17.4830 C.3   298  CYS298      0.1808
    149  C         16.9690    9.7710  -17.5050 C.2   298  CYS298      0.2601
    150  O         15.7510    9.9490  -17.6420 O.2   298  CYS298     -0.2717
    151  CB        17.2100   12.1080  -16.7430 C.3   298  CYS298      0.0970
    152  SG        18.2240   12.8140  -15.4610 S.3   298  CYS298     -0.0800
    153  N         17.5220    8.5600  -17.3180 N.am  299  ALA299     -0.1965
    154  CA        16.6720    7.3690  -17.3980 C.3   299  ALA299      0.1728
    155  C         17.4490    6.1160  -17.0010 C.2   299  ALA299      0.2616
    156  O         17.8290    5.3120  -17.8450 O.2   299  ALA299     -0.2715
    157  CB        16.0890    7.2720  -18.7960 C.3   299  ALA299      0.0334
    158  N         17.6810    5.9740  -15.7090 N.am  300  LEU300     -0.1977
    159  CA        18.5400    4.9290  -15.1470 C.3   300  LEU300      0.1596
    160  C         18.1020    3.5250  -15.5420 C.2   300  LEU300      0.2287
    161  O         16.9750    3.1150  -15.2920 O.2   300  LEU300     -0.2864
    162  CB        18.5510    5.0030  -13.6320 C.3   300  LEU300      0.0297
    163  CG        19.7270    5.5000  -12.8310 C.3   300  LEU300      0.0022
    164  CD1       19.5730    5.0340  -11.3800 C.3   300  LEU300      0.0001
    165  CD2       21.0800    5.0540  -13.3760 C.3   300  LEU300      0.0001
    166  N         16.3110    0.9060  -13.2370 N.3   303  CYS303     -0.1235
    167  CA        14.9560    1.1590  -12.7740 C.3   303  CYS303      0.1677
    168  C         13.8510    0.7530  -13.7340 C.2   303  CYS303      0.2270
    169  O         12.6530    0.9250  -13.5350 O.2   303  CYS303     -0.2867
    170  CB        14.8300    2.6720  -12.4860 C.3   303  CYS303      0.0956
    171  SG        15.8460    3.2350  -11.1290 S.3   303  CYS303     -0.0801
    172  N          7.7650    2.5440  -13.6610 N.3   309  TYR309     -0.1228
    173  CA         8.7140    3.2160  -14.5840 C.3   309  TYR309      0.1721
    174  C          7.9790    4.0500  -15.6050 C.2   309  TYR309      0.2437
    175  O          7.0310    3.5590  -16.2500 O.2   309  TYR309     -0.2733
    176  CB         9.5930    2.1510  -15.2450 C.3   309  TYR309      0.0547
    177  CG        10.6520    2.6960  -16.1800 C.ar  309  TYR309     -0.0200
    178  CD1       11.8320    3.2120  -15.6910 C.ar  309  TYR309     -0.0009
    179  CD2       10.4580    2.6790  -17.5620 C.ar  309  TYR309     -0.0009
    180  CE1       12.8070    3.7160  -16.5320 C.ar  309  TYR309      0.0417
    181  CE2       11.4350    3.1850  -18.3950 C.ar  309  TYR309      0.0417
    182  CZ        12.5990    3.6950  -17.8900 C.ar  309  TYR309      0.1957
    183  OH        13.5480    4.1790  -18.7630 O.3   309  TYR309     -0.2866
    184  N          8.2900    5.3320  -15.7350 N.am  310  PRO310     -0.2718
    185  CA         7.4770    6.2350  -16.5640 C.3   310  PRO310      0.1535
    186  C          7.7010    6.1860  -18.0620 C.2   310  PRO310      0.2598
    187  O          6.8600    6.7190  -18.8070 O.2   310  PRO310     -0.2715
    188  CB         7.8700    7.6460  -16.0530 C.3   310  PRO310      0.0310
    189  CG         9.2370    7.4710  -15.5080 C.3   310  PRO310      0.0237
    190  CD         9.3670    6.0590  -15.0400 C.3   310  PRO310      0.0939
    191  N          8.8070    5.6300  -18.5600 N.am  311  PHE311     -0.1974
    192  CA         9.1020    5.9040  -19.9600 C.3   311  PHE311      0.1639
    193  C          8.9050    4.7230  -20.8830 C.2   311  PHE311      0.2290
    194  O          9.3940    4.7620  -22.0110 O.2   311  PHE311     -0.2864
    195  CB        10.5210    6.4470  -20.1370 C.3   311  PHE311      0.0560
    196  CG        10.8810    7.5800  -19.2040 C.ar  311  PHE311     -0.0200
    197  CD1       10.0300    8.6590  -19.0300 C.ar  311  PHE311     -0.0042
    198  CD2       12.0850    7.5070  -18.5000 C.ar  311  PHE311     -0.0042
    199  CE1       10.3690    9.6860  -18.1570 C.ar  311  PHE311     -0.0003
    200  CE2       12.4110    8.5530  -17.6620 C.ar  311  PHE311     -0.0003
    201  CZ        11.5690    9.6120  -17.4850 C.ar  311  PHE311     -0.0000
@<TRIPOS>BOND
     1   194   193    2
     2   193   192    1
     3   195   192    1
     4   195   196    1
     5   192   191    1
     6   136   135    2
     7   196   197   ar
     8   196   198   ar
     9   117   116    2
    10   197   199   ar
    11   135   134    1
    12   187   186    2
    13   157   154    1
    14   147   148    1
    15   183   182    1
    16   191   186   am
    17   198   200   ar
    18   139   141   ar
    19   139   138   ar
    20   181   182   ar
    21   181   179   ar
    22   199   201   ar
    23   141   142   ar
    24   186   185    1
    25   116   115    1
    26   182   180   ar
    27   156   155    2
    28   200   201   ar
    29   150   149    2
    30   179   177   ar
    31   114   115    1
    32   134   137    1
    33   134   133    1
    34   149   148    1
    35   149   153   am
    36   148   151    1
    37   154   153    1
    38   154   155    1
    39   138   137    1
    40   138   140   ar
    41   155   158   am
    42   115   118    1
    43   142   140   ar
    44   142   144   ar
    45   151   152    1
    46   133   128   am
    47   122   120   ar
    48   122   124   ar
    49   185   188    1
    50   185   184    1
    51   180   178   ar
    52   120   119   ar
    53   175   174    2
    54   140   143   ar
    55   177   178   ar
    56   177   176    1
    57   188   189    1
    58   125   124    1
    59   144   146   ar
    60   124   123   ar
    61   119   118    1
    62   119   121   ar
    63   128   129    2
    64   128   127    1
    65   184   174   am
    66   184   190    1
    67   158   159    1
    68   174   173    1
    69   160   161    2
    70   160   159    1
    71   189   190    1
    72   123   121   ar
    73   176   173    1
    74   126   127    1
    75   126   132    1
    76   159   162    1
    77   127   130    1
    78   143   145   ar
    79   146   145   ar
    80   173   172    1
    81    13    14   ar
    82    13    11   ar
    83   132   131    1
    84    76    77   ar
    85    76    74   ar
    86    77    75   ar
    87    14    12   ar
    88   168   169    2
    89   168   167    1
    90   162   163    1
    91   130   131    1
    92   165   163    1
    93   166   167    1
    94    11     8   ar
    95    74    71   ar
    96    75    73   ar
    97   163   164    1
    98   167   170    1
    99    12    10   ar
   100   170   171    1
   101    83    84    1
   102    83    82    1
   103     8    10   ar
   104     8     6   ar
   105    71    73   ar
   106    71    69   ar
   107    73    72   ar
   108    10     9   ar
   109    84    78    1
   110     4     3    2
   111    82    79    1
   112    91    89    1
   113     6     5    1
   114     6     7   ar
   115    72    70   ar
   116     9     7   ar
   117     5     2    1
   118    69    68    1
   119    69    70   ar
   120    78    79    1
   121    78    66   am
   122     3     2    1
   123    57    56    2
   124    68    65    1
   125    79    80    1
   126    65    66    1
   127    65    64    1
   128    33    32    1
   129     2     1    1
   130    90    89    1
   131    89    86    1
   132    66    67    2
   133    85    80   am
   134    85    86    1
   135    80    81    2
   136    56    64   am
   137    56    55    1
   138    61    63   ar
   139    61    59   ar
   140    63    62   ar
   141    32    30   ar
   142    32    31   ar
   143    86    87    1
   144   111   113   ar
   145   111   109   ar
   146    30    28   ar
   147    31    29   ar
   148   102   100   ar
   149   102   101   ar
   150   113   112   ar
   151   100    98   ar
   152   109   108   ar
   153    55    58    1
   154    55    54    1
   155    62    60   ar
   156    59    58    1
   157    59    60   ar
   158    47    46   ar
   159    47    45   ar
   160    28    27   ar
   161    87    88    2
   162    29    27   ar
   163    46    44   ar
   164   112   110   ar
   165   101    99   ar
   166    53    52    1
   167   108   110   ar
   168   108   107    1
   169    27    26    1
   170    98    97   ar
   171    45    43   ar
   172   107   104    1
   173    20    19    1
   174    44    41   ar
   175    99    97   ar
   176    26    23    1
   177    97    96    1
   178    52    49    1
   179    43    41   ar
   180    43    42   ar
   181   104   105    1
   182   104   103    1
   183    23    22    1
   184    23    24    1
   185    21    19    1
   186   106   105    2
   187    41    39   ar
   188    19    16    1
   189    18    17    2
   190    22    17   am
   191    25    24    2
   192    17    16    1
   193    49    48    1
   194    49    50    1
   195    96    93    1
   196    92    93    1
   197    48    36   am
   198    42    40   ar
   199    93    94    1
   200    16    15    1
   201    39    40   ar
   202    39    38    1
   203    35    36    1
   204    35    38    1
   205    35    34    1
   206    36    37    2
   207    50    51    2
   208    94    95    2
