@<TRIPOS>MOLECULE
tmp/2pdjA01.pdb
 195 200 0 0 0
SMALL
GASTEIGER

@<TRIPOS>ATOM
      1  N        -21.6710    5.9760  -21.6730 N.3    20  TRP20      -0.1241
      2  CA       -22.1920    6.2570  -20.3480 C.3    20  TRP20       0.1605
      3  C        -23.6350    6.7760  -20.4770 C.2    20  TRP20       0.2264
      4  O        -23.8490    7.7230  -21.2190 O.2    20  TRP20      -0.2867
      5  CB       -21.2670    7.2560  -19.6290 C.3    20  TRP20       0.0550
      6  CG       -21.8360    7.7430  -18.3410 C.ar   20  TRP20       0.0003
      7  CD1      -22.5190    7.0090  -17.4040 C.ar   20  TRP20       0.0946
      8  CD2      -21.7680    9.0870  -17.8510 C.ar   20  TRP20       0.0152
      9  NE1      -22.8670    7.8570  -16.3710 N.ar   20  TRP20      -0.2442
     10  CE2      -22.4240    9.1210  -16.6080 C.ar   20  TRP20       0.0810
     11  CE3      -21.2000   10.2490  -18.3620 C.ar   20  TRP20       0.0012
     12  CZ2      -22.5130   10.3070  -15.8960 C.ar   20  TRP20       0.0191
     13  CZ3      -21.3010   11.4190  -17.6370 C.ar   20  TRP20       0.0001
     14  CH2      -21.9550   11.4340  -16.4070 C.ar   20  TRP20       0.0015
     15  N        -18.2000    0.3520  -15.0520 N.3    47  VAL47      -0.1231
     16  CA       -19.1440    1.0750  -14.2180 C.3    47  VAL47       0.1692
     17  C        -20.3800    1.4890  -14.9830 C.2    47  VAL47       0.2592
     18  O        -21.4720    1.7400  -14.4750 O.2    47  VAL47      -0.2718
     19  CB       -18.4100    2.2720  -13.5820 C.3    47  VAL47       0.0266
     20  CG1      -18.3560    3.4440  -14.5430 C.3    47  VAL47       0.0020
     21  CG2      -19.1520    2.6020  -12.3010 C.3    47  VAL47       0.0020
     22  N        -20.3060    1.5670  -16.3380 N.am   48  TYR48      -0.1976
     23  CA       -21.4830    1.9750  -17.0660 C.3    48  TYR48       0.1639
     24  C        -22.5510    0.8830  -17.1550 C.2    48  TYR48       0.2290
     25  O        -23.6710    1.1520  -17.5120 O.2    48  TYR48      -0.2864
     26  CB       -21.0820    2.3950  -18.4900 C.3    48  TYR48       0.0560
     27  CG       -20.0940    3.5420  -18.5580 C.ar   48  TYR48      -0.0198
     28  CD1      -19.7880    4.3060  -17.4440 C.ar   48  TYR48      -0.0009
     29  CD2      -19.4700    3.8770  -19.7390 C.ar   48  TYR48      -0.0009
     30  CE1      -18.8870    5.3470  -17.5380 C.ar   48  TYR48       0.0417
     31  CE2      -18.5750    4.9140  -19.8460 C.ar   48  TYR48       0.0417
     32  CZ       -18.2760    5.6570  -18.7210 C.ar   48  TYR48       0.1957
     33  OH       -17.3700    6.6980  -18.8370 O.3    48  TYR48      -0.2866
     34  N        -12.6100    0.4470  -13.0680 N.3    79  TRP79      -0.1227
     35  CA       -13.3490    1.2750  -12.1180 C.3    79  TRP79       0.1737
     36  C        -12.5790    1.4230  -10.8080 C.2    79  TRP79       0.2595
     37  O        -11.6740    0.6900  -10.4380 O.2    79  TRP79      -0.2718
     38  CB       -14.7900    0.7250  -11.9920 C.3    79  TRP79       0.0564
     39  CG       -15.5410    1.5550  -11.0070 C.ar   79  TRP79       0.0003
     40  CD1      -16.0550    1.1890   -9.7870 C.ar   79  TRP79       0.0946
     41  CD2      -15.8330    2.9550  -11.1710 C.ar   79  TRP79       0.0152
     42  NE1      -16.6520    2.2800   -9.2150 N.ar   79  TRP79      -0.2442
     43  CE2      -16.5320    3.3650  -10.0320 C.ar   79  TRP79       0.0810
     44  CE3      -15.5750    3.8960  -12.1790 C.ar   79  TRP79       0.0012
     45  CZ2      -16.9850    4.6720   -9.8560 C.ar   79  TRP79       0.0191
     46  CZ3      -16.0260    5.2060  -12.0040 C.ar   79  TRP79       0.0001
     47  CH2      -16.7220    5.5700  -10.8490 C.ar   79  TRP79       0.0015
     48  N        -12.8820    2.4590  -10.0480 N.am   80  CYS80      -0.1970
     49  CA       -12.2300    2.9010   -8.8480 C.3    80  CYS80       0.1712
     50  C        -12.1970    1.8810   -7.7310 C.2    80  CYS80       0.2296
     51  O        -11.2950    1.9600   -6.9140 O.2    80  CYS80      -0.2864
     52  CB       -12.9620    4.1540   -8.3210 C.3    80  CYS80       0.0983
     53  SG       -12.9500    5.5150   -9.4920 S.3    80  CYS80      -0.0798
     54  N         -9.7380    4.6000  -14.7180 N.3   110  HIS110     -0.1226
     55  CA       -10.8770    5.4710  -14.9880 C.3   110  HIS110      0.1752
     56  C        -10.8070    6.8180  -14.2820 C.2   110  HIS110      0.2596
     57  O        -11.0190    7.8750  -14.8780 O.2   110  HIS110     -0.2718
     58  CB       -12.1630    4.7220  -14.6150 C.3   110  HIS110      0.0759
     59  CG       -13.4340    5.2780  -15.1660 C.ar  110  HIS110      0.0818
     60  ND1      -14.5520    4.4810  -15.3170 N.ar  110  HIS110     -0.2268
     61  CD2      -13.8200    6.4910  -15.6150 C.ar  110  HIS110      0.1154
     62  CE1      -15.5390    5.1720  -15.8010 C.ar  110  HIS110      0.1986
     63  NE2      -15.1370    6.4170  -16.0020 N.ar  110  HIS110     -0.2212
     64  N        -10.4570    6.7170  -12.9970 N.am  111  TRP111     -0.1976
     65  CA       -10.1630    7.8850  -12.1870 C.3   111  TRP111      0.1640
     66  C         -8.9120    7.5900  -11.3740 C.2   111  TRP111      0.2290
     67  O         -8.6370    6.4060  -11.0720 O.2   111  TRP111     -0.2864
     68  CB       -11.3490    8.2300  -11.2770 C.3   111  TRP111      0.0576
     69  CG       -12.5190    8.7560  -12.0450 C.ar  111  TRP111      0.0006
     70  CD1      -13.4620    8.0360  -12.7280 C.ar  111  TRP111      0.0946
     71  CD2      -12.8620   10.1320  -12.2220 C.ar  111  TRP111      0.0152
     72  NE1      -14.3620    8.8980  -13.2960 N.ar  111  TRP111     -0.2442
     73  CE2      -14.0310   10.2010  -13.0170 C.ar  111  TRP111      0.0810
     74  CE3      -12.2800   11.3160  -11.7720 C.ar  111  TRP111      0.0012
     75  CZ2      -14.5920   11.4250  -13.3490 C.ar  111  TRP111      0.0191
     76  CZ3      -12.8440   12.5340  -12.1030 C.ar  111  TRP111      0.0001
     77  CH2      -14.0060   12.5830  -12.8930 C.ar  111  TRP111      0.0015
     78  N         -8.5140    8.1150   -8.3140 N.3   113  THR113     -0.1218
     79  CA        -9.0500    7.8480   -7.0010 C.3   113  THR113      0.1862
     80  C         -9.4490    6.3720   -6.8980 C.2   113  THR113      0.2287
     81  O        -10.3380    5.9430   -7.6350 O.2   113  THR113     -0.2866
     82  CB       -10.2550    8.7220   -6.6700 C.3   113  THR113      0.1770
     83  OG1      -11.2330    8.6000   -7.7110 O.3   113  THR113     -0.2211
     84  CG2       -9.9080   10.2020   -6.6690 C.3   113  THR113      0.0375
     85  N        -11.3140    3.5680   -4.6980 N.3   115  PHE115     -0.1241
     86  CA       -12.3500    3.4730   -3.7070 C.3   115  PHE115      0.1605
     87  C        -12.3480    2.0720   -3.0890 C.2   115  PHE115      0.2264
     88  O        -11.8780    1.1260   -3.7150 O.2   115  PHE115     -0.2867
     89  CB       -13.7260    3.6570   -4.3290 C.3   115  PHE115      0.0534
     90  CG       -14.0450    4.9500   -5.0310 C.ar  115  PHE115     -0.0203
     91  CD1      -13.3020    6.1020   -4.9130 C.ar  115  PHE115     -0.0042
     92  CD2      -15.1570    4.9960   -5.8750 C.ar  115  PHE115     -0.0042
     93  CE1      -13.6410    7.2520   -5.5730 C.ar  115  PHE115     -0.0003
     94  CE2      -15.5140    6.1540   -6.5320 C.ar  115  PHE115     -0.0003
     95  CZ       -14.7480    7.3060   -6.4050 C.ar  115  PHE115     -0.0000
     96  N        -20.3300    0.4220   -6.2070 N.3   121  PHE121     -0.1227
     97  CA       -19.3930    1.1290   -7.0820 C.3   121  PHE121      0.1736
     98  C        -18.9370    2.4440   -6.4840 C.2   121  PHE121      0.2595
     99  O        -17.8390    2.9560   -6.7340 O.2   121  PHE121     -0.2718
    100  CB       -20.0300    1.3870   -8.4510 C.3   121  PHE121      0.0547
    101  CG       -20.0680    0.2060   -9.4050 C.ar  121  PHE121     -0.0202
    102  CD1      -19.1060   -0.7780   -9.4380 C.ar  121  PHE121     -0.0042
    103  CD2      -21.1230    0.1130  -10.3020 C.ar  121  PHE121     -0.0042
    104  CE1      -19.1380   -1.8440  -10.2970 C.ar  121  PHE121     -0.0003
    105  CE2      -21.1770   -0.9550  -11.1700 C.ar  121  PHE121     -0.0003
    106  CZ       -20.2030   -1.9240  -11.1730 C.ar  121  PHE121     -0.0000
    107  N        -19.7910    3.0470   -5.6640 N.am  122  PHE122     -0.1976
    108  CA       -19.4220    4.4080   -5.2330 C.3   122  PHE122      0.1639
    109  C        -19.7820    4.5110   -3.7590 C.2   122  PHE122      0.2290
    110  O        -20.7210    5.1880   -3.3630 O.2   122  PHE122     -0.2864
    111  CB       -20.0850    5.4180   -6.1360 C.3   122  PHE122      0.0560
    112  CG       -19.3680    6.7280   -6.3690 C.ar  122  PHE122     -0.0200
    113  CD1      -18.8090    7.4780   -5.3580 C.ar  122  PHE122     -0.0042
    114  CD2      -19.2660    7.2510   -7.6510 C.ar  122  PHE122     -0.0042
    115  CE1      -18.1810    8.6870   -5.5970 C.ar  122  PHE122     -0.0003
    116  CE2      -18.6300    8.4430   -7.9270 C.ar  122  PHE122     -0.0003
    117  CZ       -18.0730    9.1720   -6.8870 C.ar  122  PHE122     -0.0000
    118  N        -13.7740   13.9580  -23.2030 N.3   209  TYR209     -0.1241
    119  CA       -15.1050   13.4310  -22.9670 C.3   209  TYR209      0.1605
    120  C        -16.0830   14.5690  -22.6960 C.2   209  TYR209      0.2264
    121  O        -15.7330   15.7210  -22.4550 O.2   209  TYR209     -0.2867
    122  CB       -15.0140   12.4180  -21.8510 C.3   209  TYR209      0.0534
    123  CG       -14.8330   12.7420  -20.4110 C.ar  209  TYR209     -0.0201
    124  CD1      -15.7600   13.4530  -19.6650 C.ar  209  TYR209     -0.0009
    125  CD2      -13.7320   12.3130  -19.6970 C.ar  209  TYR209     -0.0009
    126  CE1      -15.6280   13.7660  -18.3460 C.ar  209  TYR209      0.0417
    127  CE2      -13.5470   12.5770  -18.3560 C.ar  209  TYR209      0.0417
    128  CZ       -14.5120   13.3040  -17.6830 C.ar  209  TYR209      0.1957
    129  OH       -14.4520   13.6330  -16.3590 O.3   209  TYR209     -0.2866
    130  N        -26.6830   14.4860  -12.3930 N.3   219  TRP219     -0.1241
    131  CA       -26.6370   15.5040  -11.3350 C.3   219  TRP219      0.1605
    132  C        -26.8620   16.9080  -11.8640 C.2   219  TRP219      0.2264
    133  O        -26.6840   17.9040  -11.1770 O.2   219  TRP219     -0.2867
    134  CB       -25.2870   15.4030  -10.5990 C.3   219  TRP219      0.0550
    135  CG       -24.1400   15.3140  -11.5740 C.ar  219  TRP219      0.0003
    136  CD1      -23.5950   16.3390  -12.2860 C.ar  219  TRP219      0.0946
    137  CD2      -23.4130   14.1340  -11.9310 C.ar  219  TRP219      0.0152
    138  NE1      -22.5630   15.8720  -13.0770 N.ar  219  TRP219     -0.2442
    139  CE2      -22.4320   14.5340  -12.8820 C.ar  219  TRP219      0.0810
    140  CE3      -23.4840   12.8000  -11.5650 C.ar  219  TRP219      0.0012
    141  CZ2      -21.5350   13.6260  -13.4490 C.ar  219  TRP219      0.0191
    142  CZ3      -22.6020   11.8870  -12.1220 C.ar  219  TRP219      0.0001
    143  CH2      -21.6500   12.3240  -13.0540 C.ar  219  TRP219      0.0015
    144  N        -18.0460   16.5650  -14.7230 N.3   298  CYS298     -0.1221
    145  CA       -17.5780   15.4680  -13.9060 C.3   298  CYS298      0.1808
    146  C        -16.5910   15.9600  -12.8440 C.2   298  CYS298      0.2601
    147  O        -15.4250   16.1420  -13.1590 O.2   298  CYS298     -0.2717
    148  CB       -16.8330   14.4020  -14.7240 C.3   298  CYS298      0.0970
    149  SG       -17.9110   13.1180  -15.3740 S.3   298  CYS298     -0.0800
    150  N        -17.0760   16.1620  -11.6370 N.am  299  ALA299     -0.1965
    151  CA       -16.2530   16.5930  -10.5010 C.3   299  ALA299      0.1728
    152  C        -17.0930   16.2540   -9.2720 C.2   299  ALA299      0.2616
    153  O        -18.0740   16.9400   -9.0000 O.2   299  ALA299     -0.2715
    154  CB       -15.8930   18.0460  -10.5140 C.3   299  ALA299      0.0334
    155  N        -16.7460   15.1690   -8.6170 N.am  300  ALA300     -0.1977
    156  CA       -17.5940   14.6150   -7.5650 C.3   300  ALA300      0.1597
    157  C        -17.1960   15.3060   -6.2670 C.2   300  ALA300      0.2287
    158  O        -16.0820   15.1240   -5.8050 O.2   300  ALA300     -0.2864
    159  CB       -17.4510   13.1180   -7.4270 C.3   300  ALA300      0.0319
    160  N        -15.7380   13.4110   -3.5760 N.3   303  CYS303     -0.1235
    161  CA       -14.3480   12.9710   -3.6560 C.3   303  CYS303      0.1677
    162  C        -13.3060   14.0520   -3.4180 C.2   303  CYS303      0.2270
    163  O        -12.0940   13.8240   -3.6050 O.2   303  CYS303     -0.2867
    164  CB       -14.1280   12.3740   -5.0530 C.3   303  CYS303      0.0956
    165  SG       -15.0400   10.8700   -5.4150 S.3   303  CYS303     -0.0801
    166  N         -7.7120   13.1120   -5.4750 N.3   309  TYR309     -0.1228
    167  CA        -8.6870   13.9580   -6.1650 C.3   309  TYR309      0.1721
    168  C         -7.9290   14.8010   -7.1820 C.2   309  TYR309      0.2437
    169  O         -6.9890   15.5090   -6.7920 O.2   309  TYR309     -0.2733
    170  CB        -9.4840   14.8500   -5.2180 C.3   309  TYR309      0.0547
    171  CG       -10.5220   15.7340   -5.8730 C.ar  309  TYR309     -0.0200
    172  CD1      -11.7010   15.1660   -6.3630 C.ar  309  TYR309     -0.0009
    173  CD2      -10.3700   17.0950   -6.0480 C.ar  309  TYR309     -0.0009
    174  CE1      -12.6720   15.9350   -6.9730 C.ar  309  TYR309      0.0417
    175  CE2      -11.3320   17.8830   -6.6560 C.ar  309  TYR309      0.0417
    176  CZ       -12.4830   17.2870   -7.1240 C.ar  309  TYR309      0.1957
    177  OH       -13.4250   18.0740   -7.7140 O.3   309  TYR309     -0.2866
    178  N         -8.2580   14.6890   -8.4580 N.am  310  PRO310     -0.2718
    179  CA        -7.4320   15.3650   -9.4500 C.3   310  PRO310      0.1535
    180  C         -7.6330   16.8770   -9.6050 C.2   310  PRO310      0.2598
    181  O         -6.7330   17.3820  -10.2830 O.2   310  PRO310     -0.2715
    182  CB        -7.8440   14.6780  -10.7580 C.3   310  PRO310      0.0310
    183  CG        -9.2570   14.2540  -10.5310 C.3   310  PRO310      0.0237
    184  CD        -9.3480   13.9240   -9.0690 C.3   310  PRO310      0.0939
    185  N         -8.6530   17.5270   -9.0800 N.am  311  PHE311     -0.1974
    186  CA        -9.0630   18.8480   -9.5540 C.3   311  PHE311      0.1639
    187  C         -8.8050   19.9600   -8.5360 C.2   311  PHE311      0.2290
    188  O         -9.3910   21.0450   -8.5850 O.2   311  PHE311     -0.2864
    189  CB       -10.5420   18.8540   -9.9480 C.3   311  PHE311      0.0560
    190  CG       -10.8450   17.8010  -10.9940 C.ar  311  PHE311     -0.0200
    191  CD1       -9.9430   17.5070  -12.0040 C.ar  311  PHE311     -0.0042
    192  CD2      -12.0450   17.0880  -10.9220 C.ar  311  PHE311     -0.0042
    193  CE1      -10.2440   16.5290  -12.9250 C.ar  311  PHE311     -0.0003
    194  CE2      -12.3440   16.1520  -11.8650 C.ar  311  PHE311     -0.0003
    195  CZ       -11.4530   15.8690  -12.8640 C.ar  311  PHE311     -0.0000
@<TRIPOS>BOND
     1   118   119    1
     2   119   120    1
     3   119   122    1
     4   120   121    2
     5   122   123    1
     6     1     2    1
     7     4     3    2
     8     3     2    1
     9   123   125   ar
    10   123   124   ar
    11     2     5    1
    12    31    29   ar
    13    31    32   ar
    14    29    27   ar
    15   125   127   ar
    16   124   126   ar
    17     5     6    1
    18    33    32    1
    19    32    30   ar
    20    27    26    1
    21    27    28   ar
    22    26    23    1
    23    11     8   ar
    24    11    13   ar
    25   127   128   ar
    26   126   128   ar
    27     6     8   ar
    28     6     7   ar
    29     8    10   ar
    30   128   129    1
    31    13    14   ar
    32    30    28   ar
    33    25    24    2
    34     7     9   ar
    35    24    23    1
    36    23    22    1
    37    10     9   ar
    38    10    12   ar
    39    14    12   ar
    40    22    17   am
    41    63    62   ar
    42    63    61   ar
    43    62    60   ar
    44    61    59   ar
    45   149   148    1
    46    60    59   ar
    47    59    58    1
    48    15    16    1
    49    55    54    1
    50    55    58    1
    51    55    56    1
    52    17    18    2
    53    17    16    1
    54    57    56    2
    55   148   145    1
    56   144   145    1
    57    20    19    1
    58    56    64   am
    59    16    19    1
    60   145   146    1
    61    19    21    1
    62   141   143   ar
    63   141   139   ar
    64    75    73   ar
    65    75    77   ar
    66    72    73   ar
    67    72    70   ar
    68   147   146    2
    69   138   139   ar
    70   138   136   ar
    71    34    35    1
    72   143   142   ar
    73    73    71   ar
    74    64    65    1
    75   193   195   ar
    76   193   191   ar
    77    77    76   ar
    78   139   137   ar
    79   195   194   ar
    80   146   150   am
    81    70    69   ar
    82   130   131    1
    83   136   135   ar
    84    71    69   ar
    85    71    74   ar
    86    65    66    1
    87    65    68    1
    88    44    46   ar
    89    44    41   ar
    90   142   140   ar
    91    35    38    1
    92    35    36    1
    93    76    74   ar
    94    69    68    1
    95   191   190   ar
    96    46    47   ar
    97    38    39    1
    98   137   135   ar
    99   137   140   ar
   100   194   192   ar
   101   132   131    1
   102   132   133    2
   103   150   151    1
   104   135   134    1
   105    66    67    2
   106   131   134    1
   107   106   105   ar
   108   106   104   ar
   109    41    39   ar
   110    41    43   ar
   111   105   103   ar
   112    39    40   ar
   113   190   192   ar
   114   190   189    1
   115    47    45   ar
   116    36    37    2
   117    36    48   am
   118   182   183    1
   119   182   179    1
   120   183   184    1
   121   154   151    1
   122   151   152    1
   123   103   101   ar
   124   104   102   ar
   125   181   180    2
   126    48    49    1
   127    43    45   ar
   128    43    42   ar
   129   189   186    1
   130    40    42   ar
   131   180   179    1
   132   180   185   am
   133   186   185    1
   134   186   187    1
   135    53    52    1
   136   179   178    1
   137   102   101   ar
   138   101   100    1
   139   152   153    2
   140   152   155   am
   141   184   178    1
   142    49    52    1
   143    49    50    1
   144   155   156    1
   145   188   187    2
   146   178   168   am
   147   100    97    1
   148    78    79    1
   149   116   114   ar
   150   116   117   ar
   151    50    51    2
   152   177   176    1
   153    83    82    1
   154   114   112   ar
   155    81    80    2
   156   156   159    1
   157   156   157    1
   158   168   169    2
   159   168   167    1
   160   176   174   ar
   161   176   175   ar
   162    97    98    1
   163    97    96    1
   164    79    80    1
   165    79    82    1
   166   174   172   ar
   167   117   115   ar
   168    99    98    2
   169    82    84    1
   170   175   173   ar
   171    94    95   ar
   172    94    92   ar
   173    98   107   am
   174    95    93   ar
   175   112   111    1
   176   112   113   ar
   177   172   171   ar
   178   157   158    2
   179   167   166    1
   180   167   170    1
   181   111   108    1
   182   173   171   ar
   183    92    90   ar
   184   171   170    1
   185   107   108    1
   186   115   113   ar
   187    93    91   ar
   188   165   164    1
   189   108   109    1
   190   164   161    1
   191    90    91   ar
   192    90    89    1
   193    85    86    1
   194    89    86    1
   195   109   110    2
   196    88    87    2
   197    86    87    1
   198   161   160    1
   199   161   162    1
   200   163   162    2
