@<TRIPOS>MOLECULE
tmp/2pdnA01.pdb
 194 199 0 0 0
SMALL
GASTEIGER

@<TRIPOS>ATOM
      1  N         21.6940   20.3060   -9.6040 N.3    20  TRP20      -0.1241
      2  CA        22.1480   18.9230   -9.6290 C.3    20  TRP20       0.1605
      3  C         23.6200   18.8840  -10.0710 C.2    20  TRP20       0.2264
      4  O         23.9820   19.4700  -11.0790 O.2    20  TRP20      -0.2867
      5  CB        21.2940   18.0580  -10.5440 C.3    20  TRP20       0.0550
      6  CG        21.7680   16.6610  -10.7580 C.ar   20  TRP20       0.0003
      7  CD1       22.3110   15.8160   -9.8270 C.ar   20  TRP20       0.0946
      8  CD2       21.7640   15.9390  -11.9970 C.ar   20  TRP20       0.0152
      9  NE1       22.6300   14.6100  -10.4240 N.ar   20  TRP20      -0.2442
     10  CE2       22.3000   14.6690  -11.7540 C.ar   20  TRP20       0.0810
     11  CE3       21.3400   16.2420  -13.3030 C.ar   20  TRP20       0.0012
     12  CZ2       22.4200   13.7240  -12.7830 C.ar   20  TRP20       0.0191
     13  CZ3       21.4650   15.3140  -14.3100 C.ar   20  TRP20       0.0001
     14  CH2       22.0080   14.0440  -14.0420 C.ar   20  TRP20       0.0015
     15  N         18.1550   14.6760   -2.8460 N.3    47  VAL47      -0.1231
     16  CA        19.0760   13.7010   -3.4240 C.3    47  VAL47       0.1692
     17  C         20.3230   14.3610   -3.9810 C.2    47  VAL47       0.2592
     18  O         21.3210   13.6660   -4.2150 O.2    47  VAL47      -0.2718
     19  CB        18.3720   12.8640   -4.5210 C.3    47  VAL47       0.0266
     20  CG1       18.2140   13.6440   -5.8110 C.3    47  VAL47       0.0020
     21  CG2       19.1540   11.5720   -4.7420 C.3    47  VAL47       0.0020
     22  N         20.3290   15.6880   -4.1870 N.am   48  TYR48      -0.1976
     23  CA        21.5040   16.3490   -4.7230 C.3    48  TYR48       0.1639
     24  C         22.5680   16.5830   -3.6520 C.2    48  TYR48       0.2290
     25  O         23.6580   17.0140   -4.0280 O.2    48  TYR48      -0.2864
     26  CB        21.1450   17.6900   -5.3720 C.3    48  TYR48       0.0560
     27  CG        20.1400   17.5820   -6.5090 C.ar   48  TYR48      -0.0198
     28  CD1       19.8960   16.4100   -7.2020 C.ar   48  TYR48      -0.0009
     29  CD2       19.4330   18.7230   -6.8770 C.ar   48  TYR48      -0.0009
     30  CE1       18.9640   16.3670   -8.2380 C.ar   48  TYR48       0.0417
     31  CE2       18.5180   18.6640   -7.8980 C.ar   48  TYR48       0.0417
     32  CZ        18.2830   17.4960   -8.5800 C.ar   48  TYR48       0.1957
     33  OH        17.3440   17.4640   -9.6110 O.3    48  TYR48      -0.2866
     34  N         12.4930   12.6180   -2.5090 N.3    79  TRP79      -0.1227
     35  CA        13.2210   11.5150   -3.1500 C.3    79  TRP79       0.1737
     36  C         12.4330   10.2020   -3.0690 C.2    79  TRP79       0.2595
     37  O         11.5230   10.0040   -2.2540 O.2    79  TRP79      -0.2718
     38  CB        14.6990   11.4210   -2.6470 C.3    79  TRP79       0.0564
     39  CG        15.3960   10.3430   -3.4280 C.ar   79  TRP79       0.0003
     40  CD1       15.8910    9.1840   -2.9780 C.ar   79  TRP79       0.0946
     41  CD2       15.6640   10.2910   -4.8400 C.ar   79  TRP79       0.0152
     42  NE1       16.4490    8.4080   -3.9520 N.ar   79  TRP79      -0.2442
     43  CE2       16.3290    9.0720   -5.1280 C.ar   79  TRP79       0.0810
     44  CE3       15.4300   11.1500   -5.9050 C.ar   79  TRP79       0.0012
     45  CZ2       16.7150    8.7740   -6.4260 C.ar   79  TRP79       0.0191
     46  CZ3       15.8050   10.8470   -7.1950 C.ar   79  TRP79       0.0001
     47  CH2       16.4610    9.6300   -7.4520 C.ar   79  TRP79       0.0015
     48  N         12.7030    9.2660   -3.9690 N.am   80  CYS80      -0.1970
     49  CA        12.0510    8.0000   -4.2190 C.3    80  CYS80       0.1712
     50  C         12.0450    7.0860   -3.0050 C.2    80  CYS80       0.2296
     51  O         11.1660    6.2260   -2.9020 O.2    80  CYS80      -0.2864
     52  CB        12.7110    7.2810   -5.4040 C.3    80  CYS80       0.0983
     53  SG        12.7440    8.2050   -6.9560 S.3    80  CYS80      -0.0798
     54  N          9.7440   13.6230   -6.9560 N.3   110  HIS110     -0.1226
     55  CA        10.8650   13.7210   -7.8960 C.3   110  HIS110      0.1752
     56  C         10.7700   12.7620   -9.0780 C.2   110  HIS110      0.2596
     57  O         11.0790   13.1090  -10.2230 O.2   110  HIS110     -0.2718
     58  CB        12.1530   13.4510   -7.1120 C.3   110  HIS110      0.0759
     59  CG        13.3960   13.9630   -7.7480 C.ar  110  HIS110      0.0818
     60  ND1       14.4350   14.4120   -6.9800 N.ar  110  HIS110     -0.2268
     61  CD2       13.8030   14.0790   -9.0280 C.ar  110  HIS110      0.1154
     62  CE1       15.4280   14.8030   -7.7420 C.ar  110  HIS110      0.1986
     63  NE2       15.0770   14.6200   -8.9950 N.ar  110  HIS110     -0.2212
     64  N         10.3400   11.5410   -8.8160 N.am  111  TRP111     -0.1976
     65  CA        10.0780   10.4900   -9.7870 C.3   111  TRP111      0.1640
     66  C          8.8260    9.7110   -9.3590 C.2   111  TRP111      0.2290
     67  O          8.5980    9.6260   -8.1500 O.2   111  TRP111     -0.2864
     68  CB        11.2100    9.4690   -9.9130 C.3   111  TRP111      0.0576
     69  CG        12.4350   10.0840  -10.5270 C.ar  111  TRP111      0.0006
     70  CD1       13.3970   10.7550   -9.8210 C.ar  111  TRP111      0.0946
     71  CD2       12.8410   10.1190  -11.9020 C.ar  111  TRP111      0.0152
     72  NE1       14.3690   11.1990  -10.6570 N.ar  111  TRP111     -0.2442
     73  CE2       14.0610   10.8250  -11.9470 C.ar  111  TRP111      0.0810
     74  CE3       12.3140    9.6370  -13.0880 C.ar  111  TRP111      0.0012
     75  CZ2       14.7340   11.0350  -13.1440 C.ar  111  TRP111      0.0191
     76  CZ3       12.9750    9.8390  -14.2920 C.ar  111  TRP111      0.0001
     77  CH2       14.1910   10.5440  -14.3020 C.ar  111  TRP111      0.0015
     78  N          8.2880    6.6760   -9.2680 N.3   113  THR113     -0.1218
     79  CA         8.7210    5.4580   -8.6340 C.3   113  THR113      0.1862
     80  C          9.1330    5.5780   -7.1800 C.2   113  THR113      0.2287
     81  O          9.9690    6.3800   -6.7990 O.2   113  THR113     -0.2866
     82  CB         9.9470    4.8780   -9.3820 C.3   113  THR113      0.1770
     83  OG1       10.9700    5.8820   -9.4650 O.3   113  THR113     -0.2211
     84  CG2        9.5750    4.5220  -10.8060 C.3   113  THR113      0.0375
     85  N         11.1250    3.7580   -4.1260 N.3   115  PHE115     -0.1241
     86  CA        12.1950    2.8090   -3.8940 C.3   115  PHE115      0.1605
     87  C         12.1930    2.3650   -2.4340 C.2   115  PHE115      0.2264
     88  O         11.7640    3.0820   -1.5270 O.2   115  PHE115     -0.2867
     89  CB        13.5800    3.3790   -4.2010 C.3   115  PHE115      0.0534
     90  CG        13.8900    3.8940   -5.5900 C.ar  115  PHE115     -0.0203
     91  CD1       13.0710    3.6810   -6.6750 C.ar  115  PHE115     -0.0042
     92  CD2       15.0510    4.6400   -5.8010 C.ar  115  PHE115     -0.0042
     93  CE1       13.3270    4.1640   -7.9440 C.ar  115  PHE115     -0.0003
     94  CE2       15.3360    5.0940   -7.0840 C.ar  115  PHE115     -0.0003
     95  CZ        14.5000    4.8590   -8.1680 C.ar  115  PHE115     -0.0000
     96  N         19.7270    4.8140   -4.1350 N.3   122  PHE122     -0.1241
     97  CA        19.4100    3.8930   -5.2120 C.3   122  PHE122      0.1605
     98  C         19.7070    2.4680   -4.7170 C.2   122  PHE122      0.2264
     99  O         20.7550    1.8970   -5.0370 O.2   122  PHE122     -0.2867
    100  CB        20.1900    4.1230   -6.4890 C.3   122  PHE122      0.0534
    101  CG        19.9510    5.4830   -7.1480 C.ar  122  PHE122     -0.0203
    102  CD1       19.1200    5.5410   -8.2480 C.ar  122  PHE122     -0.0042
    103  CD2       20.5200    6.6490   -6.6750 C.ar  122  PHE122     -0.0042
    104  CE1       18.8770    6.7480   -8.8800 C.ar  122  PHE122     -0.0003
    105  CE2       20.2990    7.8660   -7.3170 C.ar  122  PHE122     -0.0003
    106  CZ        19.4640    7.9020   -8.4130 C.ar  122  PHE122     -0.0000
    107  N         13.8740   20.5410  -17.6470 N.3   209  TYR209     -0.1241
    108  CA        15.2060   20.3400  -17.0610 C.3   209  TYR209      0.1605
    109  C         16.2020   19.8880  -18.1230 C.2   209  TYR209      0.2264
    110  O         15.8390   19.4950  -19.2270 O.2   209  TYR209     -0.2867
    111  CB        15.0610   19.3930  -15.8920 C.3   209  TYR209      0.0534
    112  CG        14.9030   17.9150  -15.9640 C.ar  209  TYR209     -0.0201
    113  CD1       15.8060   17.0510  -16.5790 C.ar  209  TYR209     -0.0009
    114  CD2       13.8190   17.2750  -15.3840 C.ar  209  TYR209     -0.0009
    115  CE1       15.6680   15.7010  -16.6520 C.ar  209  TYR209      0.0417
    116  CE2       13.6400   15.9210  -15.4120 C.ar  209  TYR209      0.0417
    117  CZ        14.5720   15.1290  -16.0450 C.ar  209  TYR209      0.1957
    118  OH        14.4400   13.7710  -16.0950 O.3   209  TYR209     -0.2866
    119  N         26.8810   12.1500  -15.2540 N.3   218  PRO218     -0.2102
    120  CA        28.0300   11.2670  -14.9890 C.3   218  PRO218      0.1504
    121  C         28.1260   10.0450  -15.8890 C.2   218  PRO218      0.2575
    122  O         29.2150    9.4460  -15.9100 O.2   218  PRO218     -0.2718
    123  CB        27.8180   10.8570  -13.5280 C.3   218  PRO218      0.0282
    124  CG        26.3820   11.0930  -13.2270 C.3   218  PRO218      0.0208
    125  CD        25.8930   12.1510  -14.1730 C.3   218  PRO218      0.0893
    126  N         27.0910    9.6660  -16.6280 N.am  219  TRP219     -0.1977
    127  CA        27.0520    8.5050  -17.5010 C.3   219  TRP219      0.1640
    128  C         27.2030    8.8960  -18.9660 C.2   219  TRP219      0.2290
    129  O         26.9380    8.1330  -19.8970 O.2   219  TRP219     -0.2864
    130  CB        25.7380    7.7160  -17.3220 C.3   219  TRP219      0.0576
    131  CG        24.5570    8.6500  -17.3720 C.ar  219  TRP219      0.0006
    132  CD1       23.9320    9.1230  -18.4850 C.ar  219  TRP219      0.0946
    133  CD2       23.8740    9.2180  -16.2570 C.ar  219  TRP219      0.0152
    134  NE1       22.8940    9.9600  -18.1270 N.ar  219  TRP219     -0.2442
    135  CE2       22.8340   10.0340  -16.7680 C.ar  219  TRP219      0.0810
    136  CE3       24.0130    9.1400  -14.8740 C.ar  219  TRP219      0.0012
    137  CZ2       21.9630   10.7430  -15.9390 C.ar  219  TRP219      0.0191
    138  CZ3       23.1540    9.8370  -14.0540 C.ar  219  TRP219      0.0001
    139  CH2       22.1280   10.6400  -14.5770 C.ar  219  TRP219      0.0015
    140  N         18.2300   11.6320  -18.9220 N.3   298  CYS298     -0.1221
    141  CA        17.8950   11.0820  -17.6160 C.3   298  CYS298      0.1808
    142  C         16.9100    9.9320  -17.7440 C.2   298  CYS298      0.2601
    143  O         15.7150   10.1320  -17.8670 O.2   298  CYS298     -0.2717
    144  CB        17.3650   12.1940  -16.7100 C.3   298  CYS298      0.0970
    145  SG        18.6640   13.3750  -16.2400 S.3   298  CYS298     -0.0800
    146  N         17.4010    8.7000  -17.7350 N.am  299  ALA299     -0.1965
    147  CA        16.5430    7.5170  -17.7970 C.3   299  ALA299      0.1728
    148  C         17.3300    6.2900  -17.3670 C.2   299  ALA299      0.2616
    149  O         17.7830    5.4920  -18.1770 O.2   299  ALA299     -0.2715
    150  CB        15.9820    7.3410  -19.1940 C.3   299  ALA299      0.0334
    151  N         17.4890    6.1520  -16.0570 N.am  300  LEU300     -0.1977
    152  CA        18.2640    5.0680  -15.4910 C.3   300  LEU300      0.1596
    153  C         17.6290    3.7150  -15.7950 C.2   300  LEU300      0.2287
    154  O         16.6230    3.3950  -15.1800 O.2   300  LEU300     -0.2864
    155  CB        18.3630    5.2410  -13.9810 C.3   300  LEU300      0.0297
    156  CG        19.2770    4.2600  -13.2460 C.3   300  LEU300      0.0022
    157  CD1       20.6770    4.2490  -13.8370 C.3   300  LEU300      0.0001
    158  CD2       19.3020    4.5900  -11.7650 C.3   300  LEU300      0.0001
    159  N         15.7500    0.9640  -13.5540 N.3   303  CYS303     -0.1235
    160  CA        14.4030    1.2220  -13.0610 C.3   303  CYS303      0.1677
    161  C         13.3510    0.7720  -14.0480 C.2   303  CYS303      0.2270
    162  O         12.1450    0.9120  -13.7970 O.2   303  CYS303     -0.2867
    163  CB        14.2580    2.7270  -12.7710 C.3   303  CYS303      0.0956
    164  SG        15.3040    3.3840  -11.4670 S.3   303  CYS303     -0.0801
    165  N          7.6140    2.8830  -13.8420 N.3   309  TYR309     -0.1228
    166  CA         8.6490    3.4710  -14.7030 C.3   309  TYR309      0.1721
    167  C          7.9090    4.3290  -15.7140 C.2   309  TYR309      0.2437
    168  O          6.9230    3.8140  -16.2770 O.2   309  TYR309     -0.2733
    169  CB         9.4730    2.4130  -15.3960 C.3   309  TYR309      0.0547
    170  CG        10.5510    2.9650  -16.3090 C.ar  309  TYR309     -0.0200
    171  CD1       11.7480    3.3980  -15.7730 C.ar  309  TYR309     -0.0009
    172  CD2       10.3630    3.0360  -17.6820 C.ar  309  TYR309     -0.0009
    173  CE1       12.7390    3.9010  -16.6030 C.ar  309  TYR309      0.0417
    174  CE2       11.3530    3.5400  -18.5150 C.ar  309  TYR309      0.0417
    175  CZ        12.5320    3.9660  -17.9600 C.ar  309  TYR309      0.1957
    176  OH        13.5370    4.4720  -18.7680 O.3   309  TYR309     -0.2866
    177  N          8.2940    5.5840  -15.8640 N.am  310  PRO310     -0.2718
    178  CA         7.5190    6.4870  -16.6960 C.3   310  PRO310      0.1535
    179  C          7.6890    6.4060  -18.2050 C.2   310  PRO310      0.2598
    180  O          6.7930    6.9260  -18.8720 O.2   310  PRO310     -0.2715
    181  CB         8.0340    7.8890  -16.2770 C.3   310  PRO310      0.0310
    182  CG         9.3790    7.6570  -15.7120 C.3   310  PRO310      0.0237
    183  CD         9.4240    6.2630  -15.1760 C.3   310  PRO310      0.0939
    184  N          8.7720    5.8430  -18.7330 N.am  311  PHE311     -0.1974
    185  CA         9.0380    6.1140  -20.1430 C.3   311  PHE311      0.1639
    186  C          8.7970    4.9270  -21.0650 C.2   311  PHE311      0.2290
    187  O          9.4020    4.8470  -22.1370 O.2   311  PHE311     -0.2864
    188  CB        10.4870    6.6000  -20.3200 C.3   311  PHE311      0.0560
    189  CG        10.8530    7.7410  -19.3890 C.ar  311  PHE311     -0.0200
    190  CD1        9.9980    8.8240  -19.2510 C.ar  311  PHE311     -0.0042
    191  CD2       12.0320    7.7180  -18.6730 C.ar  311  PHE311     -0.0042
    192  CE1       10.3190    9.8730  -18.4130 C.ar  311  PHE311     -0.0003
    193  CE2       12.3630    8.7660  -17.8360 C.ar  311  PHE311     -0.0003
    194  CZ        11.5100    9.8400  -17.7250 C.ar  311  PHE311     -0.0000
@<TRIPOS>BOND
     1   187   186    2
     2   186   185    1
     3   188   185    1
     4   188   189    1
     5   185   184    1
     6   129   128    2
     7   189   190   ar
     8   189   191   ar
     9   190   192   ar
    10   110   109    2
    11   150   147    1
    12   128   127    1
    13   140   141    1
    14   180   179    2
    15   176   175    1
    16   184   179   am
    17   191   193   ar
    18   174   175   ar
    19   174   172   ar
    20   132   134   ar
    21   132   131   ar
    22   192   194   ar
    23   179   178    1
    24   149   148    2
    25   134   135   ar
    26   109   108    1
    27   175   173   ar
    28   143   142    2
    29   193   194   ar
    30   147   146    1
    31   147   148    1
    32   142   146   am
    33   142   141    1
    34   172   170   ar
    35   107   108    1
    36   141   144    1
    37   127   130    1
    38   127   126    1
    39   131   130    1
    40   131   133   ar
    41   148   151   am
    42   108   111    1
    43   135   133   ar
    44   135   137   ar
    45   144   145    1
    46   178   181    1
    47   178   177    1
    48   115   113   ar
    49   115   117   ar
    50   126   121   am
    51   173   171   ar
    52   113   112   ar
    53   170   171   ar
    54   170   169    1
    55   168   167    2
    56   181   182    1
    57   133   136   ar
    58   118   117    1
    59   151   152    1
    60   117   116   ar
    61   112   111    1
    62   112   114   ar
    63   137   139   ar
    64   122   121    2
    65   121   120    1
    66   177   167   am
    67   177   183    1
    68   153   152    1
    69   153   154    2
    70   167   166    1
    71   182   183    1
    72   152   155    1
    73   116   114   ar
    74   169   166    1
    75   119   120    1
    76   119   125    1
    77   120   123    1
    78   136   138   ar
    79   166   165    1
    80   139   138   ar
    81    13    14   ar
    82    13    11   ar
    83    77    76   ar
    84    77    75   ar
    85    76    74   ar
    86   125   124    1
    87   161   162    2
    88   161   160    1
    89    14    12   ar
    90   155   156    1
    91   157   156    1
    92   159   160    1
    93   123   124    1
    94    11     8   ar
    95   156   158    1
    96    75    73   ar
    97    74    71   ar
    98   160   163    1
    99    12    10   ar
   100   163   164    1
   101     8    10   ar
   102     8     6   ar
   103    73    71   ar
   104    73    72   ar
   105    71    69   ar
   106    10     9   ar
   107     4     3    2
   108    84    82    1
   109     6     5    1
   110     6     7   ar
   111    72    70   ar
   112     5     2    1
   113    69    68    1
   114    69    70   ar
   115     9     7   ar
   116    57    56    2
   117     3     2    1
   118    68    65    1
   119    65    66    1
   120    65    64    1
   121     2     1    1
   122    33    32    1
   123    83    82    1
   124    82    79    1
   125    66    67    2
   126    78    79    1
   127    56    64   am
   128    56    55    1
   129    61    63   ar
   130    61    59   ar
   131    63    62   ar
   132   104   106   ar
   133   104   102   ar
   134    79    80    1
   135    32    30   ar
   136    32    31   ar
   137   106   105   ar
   138   102   101   ar
   139    30    28   ar
   140    95    93   ar
   141    95    94   ar
   142    93    91   ar
   143    31    29   ar
   144    55    58    1
   145    55    54    1
   146    59    58    1
   147    59    60   ar
   148    62    60   ar
   149    47    46   ar
   150    47    45   ar
   151   105   103   ar
   152    28    27   ar
   153    46    44   ar
   154    80    81    2
   155   101   103   ar
   156   101   100    1
   157    94    92   ar
   158    53    52    1
   159    29    27   ar
   160    91    90   ar
   161    27    26    1
   162   100    97    1
   163    45    43   ar
   164    44    41   ar
   165    20    19    1
   166    92    90   ar
   167    90    89    1
   168    52    49    1
   169    26    23    1
   170    97    98    1
   171    97    96    1
   172    43    41   ar
   173    43    42   ar
   174    99    98    2
   175    41    39   ar
   176    21    19    1
   177    23    22    1
   178    23    24    1
   179    19    16    1
   180    49    48    1
   181    49    50    1
   182    18    17    2
   183    89    86    1
   184    22    17   am
   185    85    86    1
   186    25    24    2
   187    17    16    1
   188    48    36   am
   189    42    40   ar
   190    86    87    1
   191    39    40   ar
   192    39    38    1
   193    16    15    1
   194    35    36    1
   195    35    38    1
   196    35    34    1
   197    36    37    2
   198    50    51    2
   199    87    88    2
