@<TRIPOS>MOLECULE
tmp/2pdzA00.pdb
 123 119 0 0 0
SMALL
GASTEIGER

@<TRIPOS>ATOM
      1  N          8.8290    4.0950    7.9290 N.3    13  GLY13      -0.1210
      2  CA         7.4960    3.8410    7.3140 C.3    13  GLY13       0.1956
      3  C          7.1760    2.3480    7.4000 C.2    13  GLY13       0.2612
      4  O          8.0510    1.5260    7.5860 O.2    13  GLY13      -0.2717
      5  N          5.9280    1.9890    7.2710 N.am   14  LEU14      -0.1965
      6  CA         5.5560    0.5470    7.3500 C.3    14  LEU14       0.1728
      7  C          5.4730   -0.0680    5.9480 C.2    14  LEU14       0.2617
      8  O          5.4630   -1.2730    5.7930 O.2    14  LEU14      -0.2715
      9  CB         4.1800    0.5320    8.0170 C.3    14  LEU14       0.0311
     10  CG         4.1120   -0.6070    9.0360 C.3    14  LEU14       0.0022
     11  CD1        3.0560   -0.2790   10.0940 C.3    14  LEU14       0.0001
     12  CD2        3.7300   -1.9050    8.3240 C.3    14  LEU14       0.0001
     13  N          5.4010    0.7450    4.9260 N.am   15  GLY15      -0.1940
     14  CA         5.3070    0.1910    3.5420 C.3    15  GLY15       0.2014
     15  C          4.1020   -0.7450    3.4680 C.2    15  GLY15       0.2639
     16  O          4.2140   -1.9350    3.6870 O.2    15  GLY15      -0.2714
     17  N          2.9430   -0.2150    3.1870 N.am   16  ILE16      -0.1963
     18  CA         1.7250   -1.0780    3.1290 C.3    16  ILE16       0.1727
     19  C          0.5070   -0.2530    2.6940 C.2    16  ILE16       0.2617
     20  O          0.1000    0.6730    3.3660 O.2    16  ILE16      -0.2715
     21  CB         1.5460   -1.6050    4.5690 C.3    16  ILE16       0.0290
     22  CG1        0.1680   -2.2590    4.7310 C.3    16  ILE16       0.0022
     23  CG2        1.6680   -0.4510    5.5700 C.3    16  ILE16       0.0023
     24  CD1        0.2070   -3.2450    5.8960 C.3    16  ILE16       0.0001
     25  N         -0.0850   -0.5930    1.5810 N.am   17  SER17      -0.1936
     26  CA        -1.2830    0.1620    1.1180 C.3    17  SER17       0.2055
     27  C         -2.5160   -0.7450    1.1790 C.2    17  SER17       0.2643
     28  O         -2.7250   -1.5820    0.3230 O.2    17  SER17      -0.2714
     29  CB        -0.9730    0.5640   -0.3250 C.3    17  SER17       0.2130
     30  OG        -2.1830    0.6720   -1.0600 O.3    17  SER17      -0.2179
     31  N         -3.3260   -0.5960    2.1920 N.am   18  ILE18      -0.1963
     32  CA        -4.5340   -1.4630    2.3130 C.3    18  ILE18       0.1727
     33  C         -5.6470   -0.9830    1.3810 C.2    18  ILE18       0.2616
     34  O         -5.7480    0.1860    1.0660 O.2    18  ILE18      -0.2715
     35  CB        -4.9640   -1.3500    3.7740 C.3    18  ILE18       0.0290
     36  CG1       -5.3090    0.1020    4.1000 C.3    18  ILE18       0.0022
     37  CG2       -3.8210   -1.8150    4.6780 C.3    18  ILE18       0.0023
     38  CD1       -6.1240    0.1420    5.3910 C.3    18  ILE18       0.0001
     39  N         -6.4820   -1.8840    0.9350 N.am   19  LYS19      -0.1963
     40  CA        -7.5900   -1.4860    0.0200 C.3    19  LYS19       0.1728
     41  C         -8.8850   -2.2030    0.4140 C.2    19  LYS19       0.2617
     42  O         -8.9470   -3.4160    0.4560 O.2    19  LYS19      -0.2715
     43  CB        -7.1300   -1.9290   -1.3690 C.3    19  LYS19       0.0311
     44  CG        -7.8430   -1.0980   -2.4390 C.3    19  LYS19       0.0038
     45  CD        -7.1170   -1.2610   -3.7770 C.3    19  LYS19       0.0206
     46  CE        -8.0470   -0.8460   -4.9200 C.3    19  LYS19       0.1093
     47  NZ        -7.2020   -0.9210   -6.1450 N.3    19  LYS19      -0.1314
     48  N         -9.9180   -1.4620    0.7050 N.am   20  GLY20      -0.1940
     49  CA       -11.2080   -2.0960    1.0980 C.3    20  GLY20       0.2014
     50  C        -12.0510   -1.0770    1.8660 C.2    20  GLY20       0.2639
     51  O        -11.9190    0.1160    1.6810 O.2    20  GLY20      -0.2714
     52  N        -12.9160   -1.5350    2.7280 N.am   21  GLY21      -0.1954
     53  CA       -13.7600   -0.5840    3.5040 C.3    21  GLY21       0.1869
     54  C        -14.9840   -1.3120    4.0560 C.2    21  GLY21       0.2309
     55  O        -15.6470   -2.0540    3.3590 O.2    21  GLY21      -0.2863
     56  N         -3.4050   -4.3280   -0.8080 N.3    31  SER31      -0.1202
     57  CA        -3.3260   -4.3890   -2.2960 C.3    31  SER31       0.2020
     58  C         -1.9230   -4.0050   -2.7800 C.2    31  SER31       0.2618
     59  O         -1.5900   -4.1830   -3.9350 O.2    31  SER31      -0.2717
     60  CB        -4.3570   -3.3730   -2.7880 C.3    31  SER31       0.2103
     61  OG        -4.4020   -3.3920   -4.2080 O.3    31  SER31      -0.2182
     62  N         -1.0970   -3.4760   -1.9160 N.am   32  LYS32      -0.1979
     63  CA         0.2740   -3.0870   -2.3520 C.3    32  LYS32       0.1596
     64  C          1.2560   -3.1590   -1.1790 C.2    32  LYS32       0.2287
     65  O          1.2460   -2.3260   -0.2950 O.2    32  LYS32      -0.2864
     66  CB         0.1360   -1.6460   -2.8470 C.3    32  LYS32       0.0298
     67  CG         0.6040   -1.5560   -4.3010 C.3    32  LYS32       0.0038
     68  CD         1.1850   -0.1640   -4.5640 C.3    32  LYS32       0.0206
     69  CE         0.0960    0.8920   -4.3600 C.3    32  LYS32       0.1093
     70  NZ        -1.0000    0.4950   -5.2880 N.3    32  LYS32      -0.1314
     71  N          4.6300   -2.3870   -0.1450 N.3    34  PHE34      -0.1241
     72  CA         5.8950   -1.6980   -0.5300 C.3    34  PHE34       0.1605
     73  C          7.1060   -2.5100   -0.0590 C.2    34  PHE34       0.2264
     74  O          7.0990   -3.0880    1.0080 O.2    34  PHE34      -0.2867
     75  CB         5.8380   -0.3450    0.1800 C.3    34  PHE34       0.0534
     76  CG         4.7680    0.5070   -0.4560 C.ar   34  PHE34      -0.0203
     77  CD1        3.4540    0.4590    0.0250 C.ar   34  PHE34      -0.0042
     78  CD2        5.0890    1.3440   -1.5310 C.ar   34  PHE34      -0.0042
     79  CE1        2.4630    1.2470   -0.5700 C.ar   34  PHE34      -0.0003
     80  CE2        4.0970    2.1330   -2.1240 C.ar   34  PHE34      -0.0003
     81  CZ         2.7840    2.0840   -1.6440 C.ar   34  PHE34      -0.0000
     82  N        -12.3630    1.1780    6.7350 N.3    64  HIS64      -0.1226
     83  CA       -10.9650    1.2810    6.2250 C.3    64  HIS64       0.1752
     84  C        -10.2110    2.3680    6.9960 C.2    64  HIS64       0.2596
     85  O         -9.0020    2.3420    7.0960 O.2    64  HIS64      -0.2718
     86  CB       -11.0980    1.6450    4.7400 C.3    64  HIS64       0.0759
     87  CG        -9.7380    1.9320    4.1620 C.ar   64  HIS64       0.0818
     88  ND1       -9.1960    1.1790    3.1330 N.ar   64  HIS64      -0.2268
     89  CD2       -8.8000    2.8870    4.4610 C.ar   64  HIS64       0.1154
     90  CE1       -7.9830    1.6900    2.8540 C.ar   64  HIS64       0.1986
     91  NE2       -7.6920    2.7330    3.6340 N.ar   64  HIS64      -0.2212
     92  N        -10.9130    3.3190    7.5510 N.am   65  ASP65      -0.1974
     93  CA       -10.2270    4.3950    8.3210 C.3    65  ASP65       0.1709
     94  C         -9.8180    3.8660    9.6970 C.2    65  ASP65       0.2293
     95  O         -8.7620    4.1840   10.2080 O.2    65  ASP65      -0.2864
     96  CB       -11.2650    5.5080    8.4590 C.3    65  ASP65       0.1436
     97  CG       -11.4710    6.1850    7.1020 C.2    65  ASP65       0.3671
     98  OD1      -12.2860    5.6980    6.3370 O.co2  65  ASP65      -0.2456
     99  OD2      -10.8090    7.1790    6.8520 O.co2  65  ASP65      -0.2456
    100  N         -6.5680    1.7920    9.1580 N.3    68  VAL68      -0.1245
    101  CA        -5.3250    2.5620    8.8550 C.3    68  VAL68       0.1561
    102  C         -4.9110    3.3620   10.0910 C.2    68  VAL68       0.2260
    103  O         -3.7500    3.6560   10.2940 O.2    68  VAL68      -0.2867
    104  CB        -5.6760    3.5180    7.7020 C.3    68  VAL68       0.0252
    105  CG1       -4.3850    4.0990    7.1230 C.3    68  VAL68       0.0019
    106  CG2       -6.4240    2.7850    6.5840 C.3    68  VAL68       0.0019
    107  N         -2.6850    1.0250   12.1430 N.3    71  LEU71      -0.1231
    108  CA        -1.3830    0.8720   11.4430 C.3    71  LEU71       0.1693
    109  C         -0.5990    2.1860   11.5190 C.2    71  LEU71       0.2591
    110  O          0.6100    2.2070   11.4000 O.2    71  LEU71      -0.2718
    111  CB        -1.7520    0.5380    9.9930 C.3    71  LEU71       0.0284
    112  CG        -2.5300   -0.7800    9.9530 C.3    71  LEU71       0.0019
    113  CD1       -2.8530   -1.1360    8.5010 C.3    71  LEU71       0.0001
    114  CD2       -1.6880   -1.8950   10.5760 C.3    71  LEU71       0.0001
    115  N         -1.2790    3.2830   11.7250 N.am   72  LYS72      -0.1980
    116  CA        -0.5750    4.5930   11.8180 C.3    72  LYS72       0.1596
    117  C          0.0260    4.7560   13.2150 C.2    72  LYS72       0.2287
    118  O          1.1630    5.1550   13.3740 O.2    72  LYS72      -0.2864
    119  CB        -1.6590    5.6430   11.5710 C.3    72  LYS72       0.0298
    120  CG        -1.0250    7.0350   11.5340 C.3    72  LYS72       0.0038
    121  CD        -2.1230    8.0980   11.6140 C.3    72  LYS72       0.0206
    122  CE        -1.6630    9.3620   10.8840 C.3    72  LYS72       0.1093
    123  NZ        -2.7850    9.7000    9.9630 N.3    72  LYS72      -0.1314
@<TRIPOS>BOND
     1    47    46    1
     2    70    69    1
     3    46    45    1
     4    68    69    1
     5    68    67    1
     6    67    66    1
     7    61    60    1
     8    59    58    2
     9    45    44    1
    10    66    63    1
    11    60    57    1
    12    58    57    1
    13    58    62   am
    14    44    43    1
    15    63    62    1
    16    63    64    1
    17    57    56    1
    18    80    81   ar
    19    80    78   ar
    20    81    79   ar
    21    78    76   ar
    22    43    40    1
    23    64    65    2
    24    30    29    1
    25    79    77   ar
    26    72    71    1
    27    72    73    1
    28    72    75    1
    29    76    77   ar
    30    76    75    1
    31    29    26    1
    32    73    74    2
    33    40    41    1
    34    40    39    1
    35    28    27    2
    36    41    42    2
    37    41    48   am
    38    48    49    1
    39    39    33   am
    40    34    33    2
    41    49    50    1
    42    26    27    1
    43    26    25    1
    44    27    31   am
    45    33    32    1
    46    25    19   am
    47    51    50    2
    48    50    52   am
    49    31    32    1
    50    32    35    1
    51    19    18    1
    52    19    20    2
    53    52    53    1
    54    90    88   ar
    55    90    91   ar
    56    18    17    1
    57    18    21    1
    58    88    87   ar
    59    17    15   am
    60    55    54    2
    61    15    14    1
    62    15    16    2
    63    53    54    1
    64    14    13    1
    65    91    89   ar
    66    35    36    1
    67    35    37    1
    68    36    38    1
    69    87    89   ar
    70    87    86    1
    71    21    22    1
    72    21    23    1
    73    22    24    1
    74    86    83    1
    75    13     7   am
    76     8     7    2
    77     7     6    1
    78    83    82    1
    79    83    84    1
    80    98    97   ar
    81   106   104    1
    82    99    97   ar
    83    84    85    2
    84    84    92   am
    85    97    96    1
    86   105   104    1
    87     5     6    1
    88     5     3   am
    89     2     3    1
    90     2     1    1
    91     6     9    1
    92     3     4    2
    93    92    93    1
    94   104   101    1
    95     9    10    1
    96    93    96    1
    97    93    94    1
    98    12    10    1
    99   113   112    1
   100   101   100    1
   101   101   102    1
   102    10    11    1
   103    94    95    2
   104   112   111    1
   105   112   114    1
   106   123   122    1
   107   111   108    1
   108   102   103    2
   109   122   121    1
   110   110   109    2
   111   108   109    1
   112   108   107    1
   113   109   115   am
   114   120   119    1
   115   120   121    1
   116   119   116    1
   117   115   116    1
   118   116   117    1
   119   117   118    2
