@<TRIPOS>MOLECULE
tmp/2pe0A00.pdb
 133 125 0 0 0
SMALL
GASTEIGER

@<TRIPOS>ATOM
      1  N         -7.1460   40.3080   55.6790 N.3    13  LYS13      -0.1245
      2  CA        -5.8340   40.8210   55.3390 C.3    13  LYS13       0.1561
      3  C         -5.9000   41.9000   54.2710 C.2    13  LYS13       0.2260
      4  O         -6.8670   41.9980   53.5250 O.2    13  LYS13      -0.2867
      5  CB        -4.9330   39.6850   54.8590 C.3    13  LYS13       0.0271
      6  CG        -5.4540   38.9580   53.6450 C.3    13  LYS13       0.0035
      7  CD        -4.3010   38.4840   52.7870 C.3    13  LYS13       0.0206
      8  CE        -4.0840   36.9960   52.9300 C.3    13  LYS13       0.1093
      9  NZ        -4.1480   36.3370   51.5910 N.3    13  LYS13      -0.1314
     10  N         -5.0010   43.1340   50.8170 N.3    15  LEU15      -0.1231
     11  CA        -4.6560   42.5080   49.5550 C.3    15  LEU15       0.1693
     12  C         -3.7340   43.4240   48.7650 C.2    15  LEU15       0.2592
     13  O         -2.8090   42.9650   48.1060 O.2    15  LEU15      -0.2718
     14  CB        -5.9190   42.2260   48.7430 C.3    15  LEU15       0.0284
     15  CG        -6.9300   41.2900   49.3990 C.3    15  LEU15       0.0019
     16  CD1       -8.0570   41.0040   48.4360 C.3    15  LEU15       0.0001
     17  CD2       -6.2380   39.9990   49.7980 C.3    15  LEU15       0.0001
     18  N         -3.9940   44.7250   48.8280 N.am   16  GLY16      -0.1957
     19  CA        -3.2070   45.6550   48.0460 C.3    16  GLY16       0.1869
     20  C         -3.2350   47.0550   48.6170 C.2    16  GLY16       0.2309
     21  O         -4.1750   47.4430   49.3060 O.2    16  GLY16      -0.2863
     22  N         -6.7610   47.9140   49.5230 N.3    23  VAL23      -0.1245
     23  CA        -7.7220   46.8710   49.2140 C.3    23  VAL23       0.1561
     24  C         -7.6540   45.7660   50.2390 C.2    23  VAL23       0.2260
     25  O         -6.5830   45.2520   50.5430 O.2    23  VAL23      -0.2867
     26  CB        -7.4890   46.2850   47.8230 C.3    23  VAL23       0.0252
     27  CG1       -8.5820   45.2160   47.5170 C.3    23  VAL23       0.0019
     28  CG2       -7.5240   47.4070   46.7920 C.3    23  VAL23       0.0019
     29  N        -13.0200   41.6930   47.4260 N.3    36  ALA36      -0.1245
     30  CA       -11.8860   42.5840   47.5740 C.3    36  ALA36       0.1562
     31  C        -12.4930   43.9590   47.7370 C.2    36  ALA36       0.2260
     32  O        -13.0580   44.4970   46.7820 O.2    36  ALA36      -0.2867
     33  CB       -11.0220   42.5410   46.3190 C.3    36  ALA36       0.0290
     34  N        -12.1600   47.8550   48.2240 N.3    38  LYS38      -0.1245
     35  CA       -11.2620   48.9910   48.1530 C.3    38  LYS38       0.1561
     36  C        -11.7370   50.1000   49.0730 C.2    38  LYS38       0.2260
     37  O        -12.8900   50.5290   49.0100 O.2    38  LYS38      -0.2867
     38  CB       -11.1620   49.5270   46.7280 C.3    38  LYS38       0.0271
     39  CG       -10.1910   50.6820   46.6260 C.3    38  LYS38       0.0035
     40  CD       -10.0260   51.1420   45.2000 C.3    38  LYS38       0.0206
     41  CE        -9.2010   50.1570   44.4020 C.3    38  LYS38       0.1093
     42  NZ        -8.6620   50.8120   43.1820 N.3    38  LYS38      -0.1314
     43  N        -12.2790   43.1860   36.5710 N.3    70  VAL70      -0.1245
     44  CA       -12.7510   43.1750   37.9480 C.3    70  VAL70       0.1561
     45  C        -14.1310   43.7930   37.9570 C.2    70  VAL70       0.2260
     46  O        -14.3600   44.8170   37.3260 O.2    70  VAL70      -0.2867
     47  CB       -11.8040   43.9740   38.8700 C.3    70  VAL70       0.0252
     48  CG1      -12.5430   44.4670   40.1040 C.3    70  VAL70       0.0019
     49  CG2      -10.6460   43.0780   39.2970 C.3    70  VAL70       0.0019
     50  N        -15.4810   44.7440   45.3560 N.3    86  LEU86      -0.1231
     51  CA       -14.8880   44.3340   44.0890 C.3    86  LEU86       0.1693
     52  C        -14.6230   42.8300   44.0510 C.2    86  LEU86       0.2593
     53  O        -14.5680   42.1720   45.0920 O.2    86  LEU86      -0.2718
     54  CB       -13.5770   45.0880   43.8780 C.3    86  LEU86       0.0284
     55  CG       -13.7330   46.6050   43.7280 C.3    86  LEU86       0.0019
     56  CD1      -12.4020   47.3030   43.9360 C.3    86  LEU86       0.0001
     57  CD2      -14.2850   46.9100   42.3330 C.3    86  LEU86       0.0001
     58  N        -14.4570   42.3020   42.8430 N.am   87  SER87      -0.1938
     59  CA       -14.1300   40.8990   42.6370 C.3    87  SER87       0.2055
     60  C        -12.8550   40.5860   43.3830 C.2    87  SER87       0.2643
     61  O        -11.9160   41.3760   43.3670 O.2    87  SER87      -0.2714
     62  CB       -13.9080   40.6080   41.1530 C.3    87  SER87       0.2130
     63  OG       -14.9840   41.0940   40.3660 O.3    87  SER87      -0.2179
     64  N        -12.8370   39.4300   44.0380 N.am   88  TYR88      -0.1959
     65  CA       -11.6390   38.9120   44.6690 C.3    88  TYR88       0.1771
     66  C        -11.0200   37.8340   43.7820 C.2    88  TYR88       0.2619
     67  O        -11.5220   36.7090   43.7240 O.2    88  TYR88      -0.2715
     68  CB       -11.9920   38.3230   46.0320 C.3    88  TYR88       0.0574
     69  CG       -10.8900   37.5100   46.6640 C.ar   88  TYR88      -0.0198
     70  CD1       -9.6020   38.0120   46.7730 C.ar   88  TYR88      -0.0009
     71  CD2      -11.1490   36.2510   47.1910 C.ar   88  TYR88      -0.0009
     72  CE1       -8.6000   37.2780   47.3950 C.ar   88  TYR88       0.0417
     73  CE2      -10.1620   35.5170   47.8120 C.ar   88  TYR88       0.0417
     74  CZ        -8.8910   36.0340   47.9130 C.ar   88  TYR88       0.1957
     75  OH        -7.9140   35.3010   48.5440 O.3    88  TYR88      -0.2866
     76  N         -9.9370   38.1850   43.0950 N.am   89  ALA89      -0.1963
     77  CA        -9.2280   37.2420   42.2330 C.3    89  ALA89       0.1728
     78  C         -8.1920   36.5170   43.0600 C.2    89  ALA89       0.2616
     79  O         -7.1870   37.1030   43.4530 O.2    89  ALA89      -0.2715
     80  CB        -8.5500   37.9820   41.0950 C.3    89  ALA89       0.0334
     81  N         -8.4370   35.2370   43.3080 N.am   90  LYS90      -0.1963
     82  CA        -7.7260   34.5070   44.3450 C.3    90  LYS90       0.1728
     83  C         -6.2430   34.3110   44.0770 C.2    90  LYS90       0.2616
     84  O         -5.4690   34.0730   45.0020 O.2    90  LYS90      -0.2715
     85  CB        -8.3920   33.1450   44.5720 C.3    90  LYS90       0.0311
     86  CG        -9.6290   33.2200   45.4490 C.3    90  LYS90       0.0038
     87  CD       -10.5560   32.0240   45.2620 C.3    90  LYS90       0.0206
     88  CE       -11.6450   32.0110   46.3280 C.3    90  LYS90       0.1093
     89  NZ       -11.0870   31.7850   47.7000 N.3    90  LYS90      -0.1314
     90  N         -5.8380   34.4070   42.8190 N.am   91  ASN91      -0.1958
     91  CA        -4.4450   34.1620   42.4790 C.3    91  ASN91       0.1819
     92  C         -3.6000   35.4190   42.2940 C.2    91  ASN91       0.2622
     93  O         -2.4430   35.3430   41.8950 O.2    91  ASN91      -0.2715
     94  CB        -4.3830   33.2790   41.2400 C.3    91  ASN91       0.1195
     95  CG        -4.8560   31.8700   41.5270 C.2    91  ASN91       0.2630
     96  OD1       -4.3330   31.2040   42.4230 O.2    91  ASN91      -0.2716
     97  ND2       -5.8580   31.4100   40.7850 N.am   91  ASN91      -0.0877
     98  N         -4.1810   36.5750   42.5880 N.am   92  GLY92      -0.1940
     99  CA        -3.3990   37.7960   42.6310 C.3    92  GLY92       0.2014
    100  C         -2.8370   38.2560   41.2980 C.2    92  GLY92       0.2638
    101  O         -3.2900   37.8350   40.2320 O.2    92  GLY92      -0.2714
    102  N         -1.8330   39.1230   41.3740 N.am   93  GLU93      -0.1977
    103  CA        -1.2940   39.8270   40.2180 C.3    93  GLU93       0.1602
    104  C         -0.4970   38.9330   39.2760 C.2    93  GLU93       0.2287
    105  O          0.1630   37.9830   39.6960 O.2    93  GLU93      -0.2864
    106  CB        -0.3990   40.9740   40.6860 C.3    93  GLU93       0.0415
    107  CG        -0.8670   41.6280   41.9680 C.3    93  GLU93       0.1163
    108  CD         0.0460   42.7510   42.4150 C.2    93  GLU93       0.3649
    109  OE1        1.2400   42.7370   42.0320 O.co2  93  GLU93      -0.2457
    110  OE2       -0.4330   43.6470   43.1480 O.co2  93  GLU93      -0.2457
    111  N         -4.9180   40.8660   37.0490 N.3   139  LEU139     -0.1245
    112  CA        -5.0600   39.8910   38.1110 C.3   139  LEU139      0.1561
    113  C         -5.4950   38.5430   37.5640 C.2   139  LEU139      0.2260
    114  O         -6.0040   38.4450   36.4460 O.2   139  LEU139     -0.2867
    115  CB        -6.0900   40.3780   39.1230 C.3   139  LEU139      0.0270
    116  CG        -5.8360   41.7310   39.7760 C.3   139  LEU139      0.0019
    117  CD1       -7.0640   42.1250   40.5670 C.3   139  LEU139      0.0001
    118  CD2       -4.6110   41.6590   40.6780 C.3   139  LEU139      0.0001
    119  N         -7.7870   45.3400   36.4340 N.3   149  THR149     -0.1203
    120  CA        -8.3270   46.2420   37.4430 C.3   149  THR149      0.1994
    121  C         -7.6770   47.6180   37.4150 C.2   149  THR149      0.2617
    122  O         -6.8010   47.8900   36.5890 O.2   149  THR149     -0.2717
    123  CB        -8.1520   45.6670   38.8620 C.3   149  THR149      0.1784
    124  OG1       -8.8580   46.4950   39.8010 O.3   149  THR149     -0.2211
    125  CG2       -6.6710   45.6200   39.2360 C.3   149  THR149      0.0376
    126  N         -8.1230   48.4800   38.3220 N.am  150  ASP150     -0.1973
    127  CA        -7.4560   49.7480   38.5950 C.3   150  ASP150      0.1709
    128  C         -7.7900   50.7920   37.5360 C.2   150  ASP150      0.2293
    129  O         -6.9560   51.1130   36.6830 O.2   150  ASP150     -0.2864
    130  CB        -5.9390   49.5270   38.6720 C.3   150  ASP150      0.1436
    131  CG        -5.2100   50.6840   39.3320 C.2   150  ASP150      0.3671
    132  OD1       -5.0450   50.6640   40.5770 O.co2 150  ASP150     -0.2456
    133  OD2       -4.8020   51.6130   38.6010 O.co2 150  ASP150     -0.2456
@<TRIPOS>BOND
     1   119   120    1
     2   114   113    2
     3    43    44    1
     4   122   121    2
     5   129   128    2
     6   111   112    1
     7    46    45    2
     8   121   120    1
     9   121   126   am
    10   120   123    1
    11   128   127    1
    12   113   112    1
    13    44    45    1
    14    44    47    1
    15   112   115    1
    16   126   127    1
    17   127   130    1
    18   133   131   ar
    19   130   131    1
    20   123   125    1
    21   123   124    1
    22    47    49    1
    23    47    48    1
    24   115   116    1
    25   104   105    2
    26   104   103    1
    27   131   132   ar
    28   116   117    1
    29   116   118    1
    30   103   106    1
    31   103   102    1
    32   101   100    2
    33    63    62    1
    34   106   107    1
    35    97    95   am
    36    80    77    1
    37    62    59    1
    38    94    95    1
    39    94    91    1
    40   100   102   am
    41   100    99    1
    42    95    96    2
    43    93    92    2
    44   107   108    1
    45   109   108   ar
    46    77    78    1
    47    77    76    1
    48    92    91    1
    49    92    98   am
    50    57    55    1
    51   108   110   ar
    52    91    90    1
    53    98    99    1
    54    59    58    1
    55    59    60    1
    56    90    83   am
    57    58    52   am
    58    78    81   am
    59    78    79    2
    60    76    66   am
    61    42    41    1
    62    81    82    1
    63    61    60    2
    64    60    64   am
    65    67    66    2
    66    55    54    1
    67    55    56    1
    68    66    65    1
    69    54    51    1
    70    64    65    1
    71    52    51    1
    72    52    53    2
    73    83    82    1
    74    83    84    2
    75    51    50    1
    76    82    85    1
    77    41    40    1
    78    85    86    1
    79    65    68    1
    80    40    39    1
    81    87    86    1
    82    87    88    1
    83    68    69    1
    84    33    30    1
    85    88    89    1
    86    39    38    1
    87    69    70   ar
    88    69    71   ar
    89    38    35    1
    90    70    72   ar
    91    32    31    2
    92    28    26    1
    93    71    73   ar
    94    72    74   ar
    95    29    30    1
    96    27    26    1
    97    30    31    1
    98    73    74   ar
    99    26    23    1
   100    74    75    1
   101    19    20    1
   102    19    18    1
   103    13    12    2
   104    35    34    1
   105    35    36    1
   106    16    15    1
   107    20    21    2
   108    14    15    1
   109    14    11    1
   110    12    18   am
   111    12    11    1
   112    37    36    2
   113    23    22    1
   114    23    24    1
   115    15    17    1
   116    11    10    1
   117    24    25    2
   118     9     8    1
   119     7     8    1
   120     7     6    1
   121     4     3    2
   122     6     5    1
   123     3     2    1
   124     5     2    1
   125     2     1    1
