@<TRIPOS>MOLECULE
tmp/2pe1A00.pdb
 156 143 0 0 0
SMALL
GASTEIGER

@<TRIPOS>ATOM
      1  N         -7.2610   40.7810   56.1350 N.3    13  LYS13      -0.1245
      2  CA        -5.9110   41.2810   55.8470 C.3    13  LYS13       0.1561
      3  C         -5.8500   42.3230   54.7340 C.2    13  LYS13       0.2260
      4  O         -6.7330   42.3800   53.8900 O.2    13  LYS13      -0.2867
      5  CB        -4.9820   40.1160   55.4930 C.3    13  LYS13       0.0271
      6  CG        -5.3110   39.3890   54.1900 C.3    13  LYS13       0.0035
      7  CD        -4.3760   38.2000   53.9930 C.3    13  LYS13       0.0206
      8  CE        -3.9860   38.0200   52.5410 C.3    13  LYS13       0.1093
      9  NZ        -5.0990   37.4400   51.7270 N.3    13  LYS13      -0.1314
     10  N         -4.8880   43.6540   51.2860 N.3    15  LEU15      -0.1231
     11  CA        -4.5950   43.0260   49.9960 C.3    15  LEU15       0.1693
     12  C         -3.6640   43.8940   49.1380 C.2    15  LEU15       0.2592
     13  O         -2.8690   43.3740   48.3530 O.2    15  LEU15      -0.2718
     14  CB        -5.8930   42.7840   49.2130 C.3    15  LEU15       0.0284
     15  CG        -6.9490   41.8080   49.7410 C.3    15  LEU15       0.0019
     16  CD1       -8.0580   41.7030   48.7250 C.3    15  LEU15       0.0001
     17  CD2       -6.3400   40.4430   49.9790 C.3    15  LEU15       0.0001
     18  N         -3.7890   45.2140   49.2720 N.am   16  GLY16      -0.1957
     19  CA        -3.0220   46.1250   48.4390 C.3    16  GLY16       0.1869
     20  C         -3.0360   47.5440   48.9790 C.2    16  GLY16       0.2309
     21  O         -3.8910   47.8960   49.7920 O.2    16  GLY16      -0.2863
     22  N         -5.6660   54.8560   48.4560 N.3    21  SER21      -0.1217
     23  CA        -6.5680   53.7750   48.8430 C.3    21  SER21       0.1889
     24  C         -5.8510   52.6180   49.5370 C.2    21  SER21       0.2288
     25  O         -4.6510   52.4260   49.3760 O.2    21  SER21      -0.2866
     26  CB        -7.3060   53.2390   47.6150 C.3    21  SER21       0.2089
     27  OG        -6.4640   52.3720   46.8750 O.3    21  SER21      -0.2183
     28  N         -6.8480   48.4250   49.8990 N.3    23  VAL23      -0.1245
     29  CA        -7.8040   47.3580   49.6000 C.3    23  VAL23       0.1561
     30  C         -7.7380   46.2630   50.6660 C.2    23  VAL23       0.2260
     31  O         -6.6970   45.6450   50.8560 O.2    23  VAL23      -0.2867
     32  CB        -7.5380   46.7410   48.2010 C.3    23  VAL23       0.0252
     33  CG1       -8.6210   45.7030   47.8710 C.3    23  VAL23       0.0019
     34  CG2       -7.5270   47.8430   47.1440 C.3    23  VAL23       0.0019
     35  N        -13.2280   42.1640   47.9400 N.3    36  ALA36      -0.1245
     36  CA       -12.0920   43.0590   48.1100 C.3    36  ALA36       0.1562
     37  C        -12.6550   44.4800   48.2480 C.2    36  ALA36       0.2260
     38  O        -13.0740   45.0690   47.2550 O.2    36  ALA36      -0.2867
     39  CB       -11.1800   42.9650   46.8880 C.3    36  ALA36       0.0290
     40  N        -12.2730   48.3810   48.7710 N.3    38  LYS38      -0.1245
     41  CA       -11.2890   49.4570   48.6510 C.3    38  LYS38       0.1561
     42  C        -11.6980   50.6470   49.5250 C.2    38  LYS38       0.2260
     43  O        -12.7740   51.1980   49.3400 O.2    38  LYS38      -0.2867
     44  CB       -11.2050   49.9140   47.1920 C.3    38  LYS38       0.0271
     45  CG       -10.2270   51.0470   46.9500 C.3    38  LYS38       0.0035
     46  CD       -10.2920   51.5400   45.5110 C.3    38  LYS38       0.0206
     47  CE        -9.3510   50.7590   44.6020 C.3    38  LYS38       0.1093
     48  NZ        -8.9950   51.5200   43.3540 N.3    38  LYS38      -0.1314
     49  N        -13.5900   56.8260   38.6900 N.3    57  GLU57      -0.1245
     50  CA       -13.4290   55.3950   38.9100 C.3    57  GLU57       0.1567
     51  C        -14.7840   54.7250   39.1150 C.2    57  GLU57       0.2260
     52  O        -15.0700   53.6960   38.5080 O.2    57  GLU57      -0.2867
     53  CB       -12.5420   55.1420   40.1360 C.3    57  GLU57       0.0388
     54  CG       -12.3790   53.6690   40.4890 C.3    57  GLU57       0.1160
     55  CD       -11.4130   53.4450   41.6420 C.2    57  GLU57       0.3649
     56  OE1      -11.1480   54.4060   42.3910 O.co2  57  GLU57      -0.2457
     57  OE2      -10.9170   52.3080   41.7990 O.co2  57  GLU57      -0.2457
     58  N        -16.3790   52.0990   36.3690 N.3    61  MET61      -0.1245
     59  CA       -16.6160   50.7320   36.8180 C.3    61  MET61       0.1570
     60  C        -18.0940   50.3870   36.8040 C.2    61  MET61       0.2261
     61  O        -18.4640   49.2190   36.7760 O.2    61  MET61      -0.2867
     62  CB       -16.0420   50.5080   38.2230 C.3    61  MET61       0.0387
     63  CG       -14.5250   50.3290   38.2310 C.3    61  MET61       0.0595
     64  SD       -13.8690   49.6100   39.7580 S.3    61  MET61      -0.1393
     65  CE       -12.5500   48.6140   39.1180 C.3    61  MET61       0.0692
     66  N        -12.4650   43.5660   36.8970 N.3    70  VAL70      -0.1245
     67  CA       -12.9480   43.5760   38.2720 C.3    70  VAL70       0.1561
     68  C        -14.3130   44.2430   38.2420 C.2    70  VAL70       0.2260
     69  O        -14.5230   45.1680   37.4650 O.2    70  VAL70      -0.2867
     70  CB       -11.9670   44.3800   39.1820 C.3    70  VAL70       0.0252
     71  CG1      -12.6050   44.7040   40.5050 C.3    70  VAL70       0.0019
     72  CG2      -10.7010   43.5690   39.4140 C.3    70  VAL70       0.0019
     73  N        -15.4570   45.3530   45.7820 N.3    86  LEU86      -0.1231
     74  CA       -15.0400   44.8510   44.4700 C.3    86  LEU86       0.1693
     75  C        -14.8120   43.3400   44.4610 C.2    86  LEU86       0.2593
     76  O        -14.8510   42.7060   45.5170 O.2    86  LEU86      -0.2718
     77  CB       -13.7580   45.5580   44.0380 C.3    86  LEU86       0.0284
     78  CG       -13.7820   47.0860   44.0190 C.3    86  LEU86       0.0019
     79  CD1      -12.3620   47.6030   43.7660 C.3    86  LEU86       0.0001
     80  CD2      -14.7170   47.5760   42.9120 C.3    86  LEU86       0.0001
     81  N        -14.5610   42.7740   43.2710 N.am   87  SER87      -0.1938
     82  CA       -14.2210   41.3530   43.1360 C.3    87  SER87       0.2055
     83  C        -12.9430   41.0140   43.9020 C.2    87  SER87       0.2643
     84  O        -11.9280   41.7030   43.7660 O.2    87  SER87      -0.2714
     85  CB       -13.9870   40.9690   41.6690 C.3    87  SER87       0.2130
     86  OG       -15.1030   41.2580   40.8420 O.3    87  SER87      -0.2179
     87  N        -12.9910   39.9380   44.6860 N.am   88  TYR88      -0.1959
     88  CA       -11.7890   39.3500   45.2700 C.3    88  TYR88       0.1771
     89  C        -11.1970   38.3700   44.2630 C.2    88  TYR88       0.2619
     90  O        -11.7690   37.3130   44.0140 O.2    88  TYR88      -0.2715
     91  CB       -12.1570   38.6300   46.5670 C.3    88  TYR88       0.0574
     92  CG       -11.0350   37.8580   47.2380 C.ar   88  TYR88      -0.0198
     93  CD1       -9.7290   38.3410   47.2530 C.ar   88  TYR88      -0.0009
     94  CD2      -11.2940   36.6450   47.8700 C.ar   88  TYR88      -0.0009
     95  CE1       -8.7090   37.6310   47.8820 C.ar   88  TYR88       0.0417
     96  CE2      -10.2840   35.9290   48.5000 C.ar   88  TYR88       0.0417
     97  CZ        -8.9990   36.4260   48.5040 C.ar   88  TYR88       0.1957
     98  OH        -8.0080   35.7090   49.1360 O.3    88  TYR88      -0.2866
     99  N        -10.0600   38.7230   43.6700 N.am   89  ALA89      -0.1963
    100  CA        -9.3950   37.8290   42.7240 C.3    89  ALA89       0.1728
    101  C         -8.3860   36.9830   43.4900 C.2    89  ALA89       0.2616
    102  O         -7.3000   37.4480   43.8210 O.2    89  ALA89      -0.2715
    103  CB        -8.6960   38.6400   41.6410 C.3    89  ALA89       0.0334
    104  N         -8.7540   35.7370   43.7690 N.am   90  LYS90      -0.1977
    105  CA        -8.0480   34.9170   44.7520 C.3    90  LYS90       0.1596
    106  C         -6.5400   34.8520   44.5200 C.2    90  LYS90       0.2287
    107  O         -5.7560   34.9030   45.4690 O.2    90  LYS90      -0.2864
    108  CB        -8.6240   33.4970   44.7490 C.3    90  LYS90       0.0298
    109  CG        -9.7510   33.2760   45.7450 C.3    90  LYS90       0.0038
    110  CD        -9.1890   32.8200   47.0890 C.3    90  LYS90       0.0206
    111  CE       -10.2890   32.4350   48.0740 C.3    90  LYS90       0.1093
    112  NZ        -9.7290   32.0790   49.4130 N.3    90  LYS90      -0.1314
    113  N         -4.4490   36.9700   43.0540 N.3    92  GLY92      -0.1210
    114  CA        -3.6400   38.1780   43.0660 C.3    92  GLY92       0.1956
    115  C         -3.0930   38.6460   41.7240 C.2    92  GLY92       0.2611
    116  O         -3.6870   38.3910   40.6680 O.2    92  GLY92      -0.2717
    117  N         -1.9470   39.3220   41.7740 N.am   93  GLU93      -0.1979
    118  CA        -1.4160   40.0860   40.6450 C.3    93  GLU93       0.1602
    119  C         -0.5230   39.2820   39.7090 C.2    93  GLU93       0.2287
    120  O          0.2510   38.4320   40.1440 O.2    93  GLU93      -0.2864
    121  CB        -0.6160   41.2920   41.1560 C.3    93  GLU93       0.0415
    122  CG        -1.4230   42.2510   42.0020 C.3    93  GLU93       0.1163
    123  CD        -0.5730   43.3410   42.6170 C.2    93  GLU93       0.3649
    124  OE1        0.6350   43.3940   42.3080 O.co2  93  GLU93      -0.2457
    125  OE2       -1.1130   44.1430   43.4090 O.co2  93  GLU93      -0.2457
    126  N         -1.7080   45.8580   37.8040 N.3   137  ASN137     -0.1240
    127  CA        -3.1250   46.1610   37.6010 C.3   137  ASN137      0.1653
    128  C         -3.8720   45.0460   36.8740 C.2   137  ASN137      0.2266
    129  O         -5.0490   45.1930   36.5670 O.2   137  ASN137     -0.2867
    130  CB        -3.2800   47.4440   36.7810 C.3   137  ASN137      0.1155
    131  CG        -3.1000   48.6830   37.6080 C.2   137  ASN137      0.2627
    132  OD1       -3.2680   48.6510   38.8290 O.2   137  ASN137     -0.2716
    133  ND2       -2.7600   49.7940   36.9520 N.am  137  ASN137     -0.0877
    134  N         -5.0190   41.3460   37.5180 N.3   139  LEU139     -0.1245
    135  CA        -5.1780   40.3170   38.5440 C.3   139  LEU139      0.1561
    136  C         -5.5760   38.9590   37.9580 C.2   139  LEU139      0.2260
    137  O         -6.0510   38.8700   36.8190 O.2   139  LEU139     -0.2867
    138  CB        -6.2410   40.7500   39.5570 C.3   139  LEU139      0.0270
    139  CG        -6.1140   42.1740   40.0990 C.3   139  LEU139      0.0019
    140  CD1       -7.3980   42.5860   40.7830 C.3   139  LEU139      0.0001
    141  CD2       -4.9440   42.2410   41.0720 C.3   139  LEU139      0.0001
    142  N         -8.0210   46.0640   36.7100 N.3   149  THR149     -0.1203
    143  CA        -8.5380   46.9500   37.7500 C.3   149  THR149      0.1994
    144  C         -7.8440   48.3130   37.7350 C.2   149  THR149      0.2617
    145  O         -7.0300   48.5870   36.8450 O.2   149  THR149     -0.2717
    146  CB        -8.3840   46.3100   39.1510 C.3   149  THR149      0.1784
    147  OG1       -9.0570   47.1210   40.1180 O.3   149  THR149     -0.2211
    148  CG2       -6.9030   46.1900   39.5360 C.3   149  THR149      0.0376
    149  N         -8.1880   49.1640   38.7040 N.am  150  ASP150     -0.1973
    150  CA        -7.5440   50.4740   38.9100 C.3   150  ASP150      0.1709
    151  C         -7.9460   51.5040   37.8440 C.2   150  ASP150      0.2293
    152  O         -7.1360   51.8760   36.9910 O.2   150  ASP150     -0.2864
    153  CB        -6.0160   50.3110   38.9320 C.3   150  ASP150      0.1436
    154  CG        -5.2940   51.4690   39.6290 C.2   150  ASP150      0.3671
    155  OD1       -5.8490   52.0580   40.5850 O.co2 150  ASP150     -0.2456
    156  OD2       -4.1540   51.7830   39.2190 O.co2 150  ASP150     -0.2456
@<TRIPOS>BOND
     1    58    59    1
     2   129   128    2
     3   142   143    1
     4    61    60    2
     5   130   127    1
     6   130   131    1
     7    60    59    1
     8    59    62    1
     9   137   136    2
    10   145   144    2
    11   128   127    1
    12    66    67    1
    13   133   131   am
    14   152   151    2
    15    69    68    2
    16   134   135    1
    17   127   126    1
    18   131   132    2
    19   144   143    1
    20   144   149   am
    21   143   146    1
    22   151   150    1
    23   136   135    1
    24    62    63    1
    25    63    64    1
    26    68    67    1
    27    67    70    1
    28    52    51    2
    29   135   138    1
    30    49    50    1
    31   149   150    1
    32    50    51    1
    33    50    53    1
    34   150   153    1
    35   153   154    1
    36    65    64    1
    37   146   148    1
    38   146   147    1
    39    70    72    1
    40    70    71    1
    41   156   154   ar
    42   138   139    1
    43   154   155   ar
    44   119   120    2
    45   119   118    1
    46   139   140    1
    47   139   141    1
    48    53    54    1
    49    54    55    1
    50   118   121    1
    51   118   117    1
    52   116   115    2
    53    86    85    1
    54   121   122    1
    55   103   100    1
    56    55    57   ar
    57    55    56   ar
    58    85    82    1
    59   115   117   am
    60   115   114    1
    61   122   123    1
    62   124   123   ar
    63   123   125   ar
    64   100   101    1
    65   100    99    1
    66    80    78    1
    67   113   114    1
    68    82    81    1
    69    82    83    1
    70    81    75   am
    71    48    47    1
    72   101   104   am
    73   101   102    2
    74    99    89   am
    75    84    83    2
    76    79    78    1
    77   104   105    1
    78    83    87   am
    79    90    89    2
    80    78    77    1
    81    77    74    1
    82    89    88    1
    83    75    74    1
    84    75    76    2
    85    74    73    1
    86   106   105    1
    87   106   107    2
    88    47    46    1
    89    87    88    1
    90   108   105    1
    91   108   109    1
    92    88    91    1
    93    46    45    1
    94   109   110    1
    95    91    92    1
    96    27    26    1
    97    39    36    1
    98    45    44    1
    99   110   111    1
   100    34    32    1
   101    44    41    1
   102    92    93   ar
   103    92    94   ar
   104    93    95   ar
   105    38    37    2
   106    26    23    1
   107    94    96   ar
   108    33    32    1
   109    95    97   ar
   110    35    36    1
   111   111   112    1
   112    36    37    1
   113    32    29    1
   114    13    12    2
   115    19    20    1
   116    19    18    1
   117    22    23    1
   118    96    97   ar
   119    97    98    1
   120    41    40    1
   121    41    42    1
   122    16    15    1
   123    23    24    1
   124    20    21    2
   125    12    18   am
   126    12    11    1
   127    14    15    1
   128    14    11    1
   129    43    42    2
   130    25    24    2
   131    29    28    1
   132    29    30    1
   133    15    17    1
   134    11    10    1
   135    30    31    2
   136     9     8    1
   137     8     7    1
   138     4     3    2
   139     7     6    1
   140     6     5    1
   141     3     2    1
   142     5     2    1
   143     2     1    1
