@<TRIPOS>MOLECULE
tmp/2pe2A00.pdb
 194 183 0 0 0
SMALL
GASTEIGER

@<TRIPOS>ATOM
      1  N         -6.9530   39.7020   55.8110 N.3    13  LYS13      -0.1231
      2  CA        -5.6380   40.1960   55.4290 C.3    13  LYS13       0.1693
      3  C         -5.6650   41.2420   54.3220 C.2    13  LYS13       0.2592
      4  O         -6.5810   41.2940   53.4930 O.2    13  LYS13      -0.2718
      5  CB        -4.7260   39.0380   55.0060 C.3    13  LYS13       0.0285
      6  CG        -5.1600   38.3120   53.7530 C.3    13  LYS13       0.0035
      7  CD        -4.0140   37.5000   53.1860 C.3    13  LYS13       0.0206
      8  CE        -4.5220   36.3630   52.3130 C.3    13  LYS13       0.1093
      9  NZ        -5.1270   35.2640   53.1270 N.3    13  LYS13      -0.1314
     10  N         -4.6360   42.0740   54.3240 N.am   14  ILE14      -0.1966
     11  CA        -4.4460   43.0680   53.2930 C.3    14  ILE14       0.1727
     12  C         -3.9210   42.4130   52.0180 C.2    14  ILE14       0.2616
     13  O         -2.9280   41.6860   52.0430 O.2    14  ILE14      -0.2715
     14  CB        -3.4650   44.1500   53.7940 C.3    14  ILE14       0.0290
     15  CG1       -4.1220   44.9010   54.9590 C.3    14  ILE14       0.0022
     16  CG2       -3.0630   45.0890   52.6460 C.3    14  ILE14       0.0023
     17  CD1       -3.2310   45.9220   55.6370 C.3    14  ILE14       0.0001
     18  N         -4.6060   42.6710   50.9060 N.am   15  LEU15      -0.1963
     19  CA        -4.2430   42.0870   49.6220 C.3    15  LEU15       0.1728
     20  C         -3.3940   43.0600   48.8000 C.2    15  LEU15       0.2616
     21  O         -2.5850   42.6490   47.9720 O.2    15  LEU15      -0.2715
     22  CB        -5.5060   41.7280   48.8320 C.3    15  LEU15       0.0311
     23  CG        -6.4610   40.7020   49.4400 C.3    15  LEU15       0.0022
     24  CD1       -7.7050   40.6020   48.5730 C.3    15  LEU15       0.0001
     25  CD2       -5.7700   39.3480   49.5430 C.3    15  LEU15       0.0001
     26  N         -3.6020   44.3530   49.0190 N.am   16  GLY16      -0.1955
     27  CA        -2.8660   45.3450   48.2650 C.3    16  GLY16       0.1869
     28  C         -2.8580   46.6850   48.9690 C.2    16  GLY16       0.2309
     29  O         -3.7950   47.0140   49.6930 O.2    16  GLY16      -0.2863
     30  N         -5.4290   53.9570   48.4550 N.3    21  SER21      -0.1217
     31  CA        -6.3580   52.9120   48.8580 C.3    21  SER21       0.1889
     32  C         -5.6560   51.7030   49.4510 C.2    21  SER21       0.2288
     33  O         -4.4570   51.5120   49.2640 O.2    21  SER21      -0.2866
     34  CB        -7.2140   52.4730   47.6640 C.3    21  SER21       0.2089
     35  OG        -6.4390   51.7870   46.7040 O.3    21  SER21      -0.2183
     36  N         -6.6000   47.4730   49.6960 N.3    23  VAL23      -0.1245
     37  CA        -7.5240   46.3930   49.3780 C.3    23  VAL23       0.1561
     38  C         -7.4690   45.3050   50.4510 C.2    23  VAL23       0.2260
     39  O         -6.4120   44.7440   50.7200 O.2    23  VAL23      -0.2867
     40  CB        -7.1950   45.7780   48.0080 C.3    23  VAL23       0.0252
     41  CG1       -8.2170   44.7010   47.6680 C.3    23  VAL23       0.0019
     42  CG2       -7.1960   46.8690   46.9400 C.3    23  VAL23       0.0019
     43  N        -12.7520   41.2240   47.6230 N.3    36  ALA36      -0.1245
     44  CA       -11.6610   42.1630   47.8330 C.3    36  ALA36       0.1562
     45  C        -12.2770   43.5560   47.9510 C.2    36  ALA36       0.2260
     46  O        -12.7710   44.1160   46.9670 O.2    36  ALA36      -0.2867
     47  CB       -10.6870   42.1140   46.6630 C.3    36  ALA36       0.0290
     48  N        -11.8990   47.4010   48.4010 N.3    38  LYS38      -0.1245
     49  CA       -10.9580   48.5060   48.3240 C.3    38  LYS38       0.1561
     50  C        -11.4580   49.6450   49.1960 C.2    38  LYS38       0.2260
     51  O        -12.5960   50.1020   49.0550 O.2    38  LYS38      -0.2867
     52  CB       -10.7930   48.9870   46.8760 C.3    38  LYS38       0.0271
     53  CG        -9.7540   50.0960   46.7310 C.3    38  LYS38       0.0035
     54  CD        -9.6900   50.6280   45.3000 C.3    38  LYS38       0.0206
     55  CE        -8.6870   49.8490   44.4620 C.3    38  LYS38       0.1093
     56  NZ        -8.6250   50.3350   43.0430 N.3    38  LYS38      -0.1314
     57  N        -13.1760   55.8010   38.6410 N.3    57  GLU57      -0.1245
     58  CA       -13.0110   54.3780   38.9110 C.3    57  GLU57       0.1567
     59  C        -14.3810   53.7220   39.0520 C.2    57  GLU57       0.2260
     60  O        -14.6650   52.6990   38.4190 O.2    57  GLU57      -0.2867
     61  CB       -12.2020   54.1520   40.1940 C.3    57  GLU57       0.0388
     62  CG       -12.0740   52.6780   40.5790 C.3    57  GLU57       0.1160
     63  CD       -11.0620   52.4330   41.6860 C.2    57  GLU57       0.3649
     64  OE1      -10.5970   53.4110   42.3130 O.co2  57  GLU57      -0.2457
     65  OE2      -10.7280   51.2570   41.9320 O.co2  57  GLU57      -0.2457
     66  N        -12.0180   42.7240   36.6730 N.3    70  VAL70      -0.1245
     67  CA       -12.5140   42.7370   38.0410 C.3    70  VAL70       0.1561
     68  C        -13.8720   43.4200   38.0330 C.2    70  VAL70       0.2260
     69  O        -14.0730   44.4000   37.3140 O.2    70  VAL70      -0.2867
     70  CB       -11.5590   43.5130   38.9710 C.3    70  VAL70       0.0252
     71  CG1      -12.2440   43.8100   40.2940 C.3    70  VAL70       0.0019
     72  CG2      -10.2940   42.6930   39.2170 C.3    70  VAL70       0.0019
     73  N        -15.1550   44.4010   45.4230 N.3    86  LEU86      -0.1231
     74  CA       -14.6650   43.9720   44.1200 C.3    86  LEU86       0.1693
     75  C        -14.4240   42.4590   44.0820 C.2    86  LEU86       0.2593
     76  O        -14.4120   41.7950   45.1190 O.2    86  LEU86      -0.2718
     77  CB       -13.3620   44.7090   43.7880 C.3    86  LEU86       0.0284
     78  CG       -13.3650   46.2410   43.8480 C.3    86  LEU86       0.0019
     79  CD1      -11.9330   46.7690   43.7350 C.3    86  LEU86       0.0001
     80  CD2      -14.2190   46.7930   42.7130 C.3    86  LEU86       0.0001
     81  N        -14.2190   41.9260   42.8790 N.am   87  SER87      -0.1938
     82  CA       -13.8470   40.5230   42.7020 C.3    87  SER87       0.2055
     83  C        -12.5880   40.1720   43.4890 C.2    87  SER87       0.2643
     84  O        -11.5820   40.8750   43.4110 O.2    87  SER87      -0.2714
     85  CB       -13.5840   40.2190   41.2260 C.3    87  SER87       0.2130
     86  OG       -14.7090   40.5270   40.4240 O.3    87  SER87      -0.2179
     87  N        -12.6530   39.0720   44.2330 N.am   88  TYR88      -0.1959
     88  CA       -11.4750   38.4770   44.8430 C.3    88  TYR88       0.1771
     89  C        -10.8160   37.5390   43.8280 C.2    88  TYR88       0.2619
     90  O        -11.3180   36.4470   43.5460 O.2    88  TYR88      -0.2715
     91  CB       -11.8850   37.7080   46.1070 C.3    88  TYR88       0.0574
     92  CG       -10.7520   36.9650   46.7910 C.ar   88  TYR88      -0.0198
     93  CD1       -9.4620   37.4880   46.8170 C.ar   88  TYR88      -0.0009
     94  CD2      -10.9760   35.7350   47.4100 C.ar   88  TYR88      -0.0009
     95  CE1       -8.4220   36.8080   47.4370 C.ar   88  TYR88       0.0417
     96  CE2       -9.9480   35.0500   48.0340 C.ar   88  TYR88       0.0417
     97  CZ        -8.6720   35.5900   48.0450 C.ar   88  TYR88       0.1957
     98  OH        -7.6500   34.9110   48.6680 O.3    88  TYR88      -0.2866
     99  N         -9.6960   37.9750   43.2680 N.am   89  ALA89      -0.1963
    100  CA        -8.9400   37.1510   42.3370 C.3    89  ALA89       0.1728
    101  C         -7.8950   36.3880   43.1370 C.2    89  ALA89       0.2616
    102  O         -6.8190   36.9070   43.4220 O.2    89  ALA89      -0.2715
    103  CB        -8.2660   38.0350   41.2820 C.3    89  ALA89       0.0334
    104  N         -8.2160   35.1480   43.4820 N.am   90  LYS90      -0.1963
    105  CA        -7.5050   34.4310   44.5360 C.3    90  LYS90       0.1728
    106  C         -5.9960   34.2740   44.3280 C.2    90  LYS90       0.2616
    107  O         -5.2320   34.2470   45.2910 O.2    90  LYS90      -0.2715
    108  CB        -8.1290   33.0490   44.7290 C.3    90  LYS90       0.0311
    109  CG        -7.5280   32.2710   45.8750 C.3    90  LYS90       0.0038
    110  CD        -7.9680   30.8140   45.8450 C.3    90  LYS90       0.0206
    111  CE        -7.4160   30.0510   47.0440 C.3    90  LYS90       0.1093
    112  NZ        -7.7280   28.5940   46.9760 N.3    90  LYS90      -0.1314
    113  N         -5.5590   34.1600   43.0820 N.am   91  ASN91      -0.1958
    114  CA        -4.1460   33.9180   42.8260 C.3    91  ASN91       0.1819
    115  C         -3.3100   35.1760   42.6220 C.2    91  ASN91       0.2622
    116  O         -2.1200   35.0910   42.3440 O.2    91  ASN91      -0.2715
    117  CB        -3.9850   32.9780   41.6330 C.3    91  ASN91       0.1195
    118  CG        -4.2790   31.5280   41.9990 C.2    91  ASN91       0.2630
    119  OD1       -3.7310   31.0000   42.9680 O.2    91  ASN91      -0.2716
    120  ND2       -5.1520   30.8850   41.2350 N.am   91  ASN91      -0.0877
    121  N         -3.9300   36.3430   42.7610 N.am   92  GLY92      -0.1940
    122  CA        -3.1580   37.5720   42.8190 C.3    92  GLY92       0.2014
    123  C         -2.5260   37.9960   41.5110 C.2    92  GLY92       0.2638
    124  O         -2.9730   37.5980   40.4430 O.2    92  GLY92      -0.2714
    125  N         -1.4680   38.7940   41.6070 N.am   93  GLU93      -0.1977
    126  CA        -0.9130   39.5160   40.4660 C.3    93  GLU93       0.1602
    127  C         -0.1160   38.6530   39.5040 C.2    93  GLU93       0.2287
    128  O          0.6670   37.8020   39.9170 O.2    93  GLU93      -0.2864
    129  CB        -0.0270   40.6600   40.9660 C.3    93  GLU93       0.0415
    130  CG        -0.7400   41.5910   41.9370 C.3    93  GLU93       0.1163
    131  CD         0.1160   42.7650   42.3660 C.2    93  GLU93       0.3649
    132  OE1        1.3590   42.6800   42.2390 O.co2  93  GLU93      -0.2457
    133  OE2       -0.4600   43.7760   42.8310 O.co2  93  GLU93      -0.2457
    134  N          3.6420   38.2770   40.0980 N.3    96  LYS96      -0.1231
    135  CA         4.1680   37.2600   40.9930 C.3    96  LYS96       0.1693
    136  C          4.5430   35.9870   40.2430 C.2    96  LYS96       0.2592
    137  O          5.5380   35.3390   40.5650 O.2    96  LYS96      -0.2718
    138  CB         3.1490   36.9410   42.0860 C.3    96  LYS96       0.0285
    139  CG         3.0250   38.0220   43.1450 C.3    96  LYS96       0.0035
    140  CD         3.1860   37.4300   44.5370 C.3    96  LYS96       0.0206
    141  CE         4.5110   36.6840   44.6650 C.3    96  LYS96       0.1093
    142  NZ         4.4680   35.6050   45.6940 N.3    96  LYS96      -0.1314
    143  N          3.7550   35.6280   39.2350 N.am   97  TYR97      -0.1976
    144  CA         4.0440   34.4230   38.4590 C.3    97  TYR97       0.1639
    145  C          5.2390   34.5970   37.5420 C.2    97  TYR97       0.2290
    146  O          5.9980   33.6560   37.3210 O.2    97  TYR97      -0.2864
    147  CB         2.8260   34.0110   37.6400 C.3    97  TYR97       0.0560
    148  CG         1.7680   33.3470   38.4820 C.ar   97  TYR97      -0.0198
    149  CD1        1.8170   31.9830   38.7430 C.ar   97  TYR97      -0.0009
    150  CD2        0.7360   34.0860   39.0410 C.ar   97  TYR97      -0.0009
    151  CE1        0.8680   31.3770   39.5360 C.ar   97  TYR97       0.0417
    152  CE2       -0.2180   33.4890   39.8330 C.ar   97  TYR97       0.0417
    153  CZ        -0.1480   32.1350   40.0760 C.ar   97  TYR97       0.1957
    154  OH        -1.1120   31.5360   40.8470 O.3    97  TYR97      -0.2866
    155  N          8.0910   34.2620   39.7420 N.3   100  LYS100     -0.1245
    156  CA         8.1550   32.9090   40.2830 C.3   100  LYS100      0.1561
    157  C          8.8060   31.9190   39.3310 C.2   100  LYS100      0.2260
    158  O          9.6490   31.1260   39.7450 O.2   100  LYS100     -0.2867
    159  CB         6.7530   32.4120   40.6370 C.3   100  LYS100      0.0271
    160  CG         6.7000   30.9510   41.0560 C.3   100  LYS100      0.0035
    161  CD         5.2640   30.5060   41.3230 C.3   100  LYS100      0.0206
    162  CE         5.2020   29.1150   41.9560 C.3   100  LYS100      0.1093
    163  NZ         5.2220   28.0120   40.9450 N.3   100  LYS100     -0.1314
    164  N         -1.3610   45.0360   37.5160 N.3   137  ASN137     -0.1240
    165  CA        -2.7720   45.3540   37.3380 C.3   137  ASN137      0.1653
    166  C         -3.5560   44.2260   36.6670 C.2   137  ASN137      0.2266
    167  O         -4.7530   44.3600   36.3870 O.2   137  ASN137     -0.2867
    168  CB        -2.9100   46.6280   36.5070 C.3   137  ASN137      0.1155
    169  CG        -2.8480   47.8730   37.3560 C.2   137  ASN137      0.2627
    170  OD1       -3.0010   47.8070   38.5790 O.2   137  ASN137     -0.2716
    171  ND2       -2.6220   49.0170   36.7210 N.am  137  ASN137     -0.0877
    172  N         -4.7210   40.5640   37.3710 N.3   139  LEU139     -0.1245
    173  CA        -4.8430   39.5260   38.3870 C.3   139  LEU139      0.1561
    174  C         -5.1540   38.1640   37.7660 C.2   139  LEU139      0.2260
    175  O         -5.5690   38.0860   36.6080 O.2   139  LEU139     -0.2867
    176  CB        -5.9350   39.9040   39.3830 C.3   139  LEU139      0.0270
    177  CG        -5.8970   41.3450   39.9040 C.3   139  LEU139      0.0019
    178  CD1       -6.9930   41.5110   40.9260 C.3   139  LEU139      0.0001
    179  CD2       -4.5430   41.6680   40.5200 C.3   139  LEU139      0.0001
    180  N         -7.6380   45.0950   36.6310 N.3   149  THR149     -0.1203
    181  CA        -8.1930   46.0160   37.6150 C.3   149  THR149      0.1994
    182  C         -7.5080   47.3840   37.5490 C.2   149  THR149      0.2617
    183  O         -6.6770   47.6250   36.6640 O.2   149  THR149     -0.2717
    184  CB        -8.0450   45.4450   39.0410 C.3   149  THR149      0.1784
    185  OG1       -8.8090   46.2420   39.9530 O.3   149  THR149     -0.2211
    186  CG2       -6.5710   45.4400   39.4770 C.3   149  THR149      0.0376
    187  N         -7.8870   48.2750   38.4690 N.am  150  ASP150     -0.1973
    188  CA        -7.2180   49.5630   38.6780 C.3   150  ASP150      0.1709
    189  C         -7.6020   50.6210   37.6520 C.2   150  ASP150      0.2293
    190  O         -6.7900   50.9910   36.8020 O.2   150  ASP150     -0.2864
    191  CB        -5.6970   49.3820   38.6620 C.3   150  ASP150      0.1436
    192  CG        -4.9620   50.5290   39.3380 C.2   150  ASP150      0.3671
    193  OD1       -5.4760   51.0610   40.3480 O.co2 150  ASP150     -0.2456
    194  OD2       -3.8690   50.8960   38.8570 O.co2 150  ASP150     -0.2456
@<TRIPOS>BOND
     1   167   166    2
     2   168   165    1
     3   168   169    1
     4   175   174    2
     5   180   181    1
     6   183   182    2
     7   166   165    1
     8    66    67    1
     9   171   169   am
    10   190   189    2
    11    69    68    2
    12   146   145    2
    13   165   164    1
    14   169   170    2
    15   172   173    1
    16   145   144    1
    17   182   181    1
    18   182   187   am
    19   181   184    1
    20   147   144    1
    21   147   148    1
    22   189   188    1
    23   174   173    1
    24    68    67    1
    25    67    70    1
    26   173   176    1
    27    60    59    2
    28   144   143    1
    29   187   188    1
    30   148   149   ar
    31   148   150   ar
    32    57    58    1
    33   191   188    1
    34   191   192    1
    35   149   151   ar
    36   194   192   ar
    37    58    59    1
    38    58    61    1
    39    70    72    1
    40    70    71    1
    41   184   186    1
    42   184   185    1
    43   150   152   ar
    44   143   136   am
    45   157   158    2
    46   157   156    1
    47   192   193   ar
    48   176   177    1
    49   127   128    2
    50   127   126    1
    51   151   153   ar
    52   155   156    1
    53   152   153   ar
    54   177   179    1
    55   177   178    1
    56   153   154    1
    57   134   135    1
    58    61    62    1
    59   136   137    2
    60   136   135    1
    61   156   159    1
    62    86    85    1
    63   124   123    2
    64   126   129    1
    65   126   125    1
    66    62    63    1
    67   159   160    1
    68   163   162    1
    69   129   130    1
    70   135   138    1
    71   160   161    1
    72    85    82    1
    73   120   118   am
    74   103   100    1
    75   161   162    1
    76   123   125   am
    77   123   122    1
    78   117   118    1
    79   117   114    1
    80    63    65   ar
    81    63    64   ar
    82   130   131    1
    83   118   119    2
    84   138   139    1
    85   132   131   ar
    86   100   101    1
    87   100    99    1
    88   116   115    2
    89   131   133   ar
    90   115   121   am
    91   115   114    1
    92    82    81    1
    93    82    83    1
    94    80    78    1
    95   121   122    1
    96   114   113    1
    97    81    75   am
    98    56    55    1
    99   113   106   am
   100   101   102    2
   101   101   104   am
   102   139   140    1
   103    99    89   am
   104    84    83    2
   105   104   105    1
   106    83    87   am
   107    90    89    2
   108    79    78    1
   109    77    78    1
   110    77    74    1
   111    89    88    1
   112    75    74    1
   113    75    76    2
   114    74    73    1
   115    87    88    1
   116   106   105    1
   117   106   107    2
   118    55    54    1
   119   105   108    1
   120   140   141    1
   121   141   142    1
   122   108   109    1
   123    88    91    1
   124    54    53    1
   125   110   109    1
   126   110   111    1
   127    91    92    1
   128    47    44    1
   129    35    34    1
   130    53    52    1
   131    92    93   ar
   132    92    94   ar
   133    93    95   ar
   134    52    49    1
   135    42    40    1
   136    46    45    2
   137   112   111    1
   138    94    96   ar
   139    95    97   ar
   140    43    44    1
   141    34    31    1
   142    41    40    1
   143    44    45    1
   144    21    20    2
   145    40    37    1
   146    96    97   ar
   147    97    98    1
   148    27    28    1
   149    27    26    1
   150    49    48    1
   151    49    50    1
   152    30    31    1
   153    24    23    1
   154    20    26   am
   155    20    19    1
   156    22    23    1
   157    22    19    1
   158    31    32    1
   159    28    29    2
   160    51    50    2
   161    33    32    2
   162    37    36    1
   163    37    38    1
   164    23    25    1
   165    19    18    1
   166    38    39    2
   167    18    12   am
   168    12    13    2
   169    12    11    1
   170     8     9    1
   171     8     7    1
   172    16    14    1
   173     7     6    1
   174    11    14    1
   175    11    10    1
   176     4     3    2
   177     6     5    1
   178    14    15    1
   179     3    10   am
   180     3     2    1
   181    15    17    1
   182     5     2    1
   183     2     1    1
