@<TRIPOS>MOLECULE
tmp/2pe4A00.pdb
 100 96 0 0 0
SMALL
GASTEIGER

@<TRIPOS>ATOM
      1  N         56.2380  -18.8030    0.4910 N.3   281  LEU281     -0.1245
      2  CA        55.8430  -20.0030    1.1990 C.3   281  LEU281      0.1561
      3  C         54.5410  -19.8100    1.9910 C.2   281  LEU281      0.2260
      4  O         53.6290  -20.6360    1.9670 O.2   281  LEU281     -0.2867
      5  CB        56.9660  -20.4460    2.1170 C.3   281  LEU281      0.0270
      6  CG        56.5460  -21.6500    2.9570 C.3   281  LEU281      0.0019
      7  CD1       56.0290  -22.7750    2.0630 C.3   281  LEU281      0.0001
      8  CD2       57.7510  -22.0740    3.7950 C.3   281  LEU281      0.0001
      9  N         50.7470  -21.6700    2.1040 N.3   285  GLU285     -0.1245
     10  CA        50.0280  -22.1160    3.2960 C.3   285  GLU285      0.1567
     11  C         48.6040  -21.5620    3.3130 C.2   285  GLU285      0.2260
     12  O         47.6660  -22.2530    3.7010 O.2   285  GLU285     -0.2867
     13  CB        50.7690  -21.6740    4.6060 C.3   285  GLU285      0.0388
     14  CG        52.1980  -22.1600    4.7350 C.3   285  GLU285      0.1160
     15  CD        52.9500  -21.5940    5.9890 C.2   285  GLU285      0.3649
     16  OE1       52.2650  -21.1690    6.9540 O.co2 285  GLU285     -0.2457
     17  OE2       54.2260  -21.5620    5.9820 O.co2 285  GLU285     -0.2457
     18  N         56.8800  -28.3640    0.1680 N.3   328  PHE328     -0.1241
     19  CA        55.5520  -27.9700    0.6290 C.3   328  PHE328      0.1605
     20  C         54.4590  -28.9510    0.2410 C.2   328  PHE328      0.2264
     21  O         53.5720  -29.2390    1.0660 O.2   328  PHE328     -0.2867
     22  CB        55.1280  -26.5540    0.1550 C.3   328  PHE328      0.0534
     23  CG        53.7450  -26.1640    0.6560 C.ar  328  PHE328     -0.0203
     24  CD1       53.5690  -25.6980    1.9510 C.ar  328  PHE328     -0.0042
     25  CD2       52.6300  -26.3550   -0.1340 C.ar  328  PHE328     -0.0042
     26  CE1       52.2910  -25.3940    2.4260 C.ar  328  PHE328     -0.0003
     27  CE2       51.3420  -26.0350    0.3390 C.ar  328  PHE328     -0.0003
     28  CZ        51.1770  -25.5600    1.6300 C.ar  328  PHE328     -0.0000
     29  N         54.7490  -31.9840    2.2460 N.3   331  ASN331     -0.1240
     30  CA        54.4580  -31.6040    3.6170 C.3   331  ASN331      0.1653
     31  C         52.9470  -31.6450    3.8440 C.2   331  ASN331      0.2266
     32  O         52.4630  -32.4010    4.6890 O.2   331  ASN331     -0.2867
     33  CB        55.0960  -30.2160    3.8930 C.3   331  ASN331      0.1155
     34  CG        55.0130  -29.7760    5.3530 C.2   331  ASN331      0.2627
     35  OD1       54.0550  -30.0570    6.0700 O.2   331  ASN331     -0.2716
     36  ND2       56.0550  -29.0850    5.7860 N.am  331  ASN331     -0.0877
     37  N         46.3630  -25.5990   10.4120 N.3   360  LEU360     -0.1245
     38  CA        46.7610  -26.2290    9.1600 C.3   360  LEU360      0.1561
     39  C         47.2860  -27.6440    9.4260 C.2   360  LEU360      0.2260
     40  O         47.6470  -27.9790   10.5650 O.2   360  LEU360     -0.2867
     41  CB        47.8730  -25.4030    8.4960 C.3   360  LEU360      0.0270
     42  CG        47.5570  -23.9590    8.0900 C.3   360  LEU360      0.0019
     43  CD1       48.8260  -23.2760    7.6180 C.3   360  LEU360      0.0001
     44  CD2       46.5080  -23.9300    6.9670 C.3   360  LEU360      0.0001
     45  N         50.2000  -29.8190    8.6890 N.3   362  LEU362     -0.1231
     46  CA        51.5680  -29.7210    8.2200 C.3   362  LEU362      0.1693
     47  C         52.4050  -30.6070    9.0960 C.2   362  LEU362      0.2592
     48  O         51.9050  -31.1030   10.1350 O.2   362  LEU362     -0.2718
     49  CB        52.0460  -28.2810    8.3270 C.3   362  LEU362      0.0284
     50  CG        51.2280  -27.3110    7.4540 C.3   362  LEU362      0.0019
     51  CD1       51.3600  -25.9310    8.0430 C.3   362  LEU362      0.0001
     52  CD2       51.4830  -27.3440    5.8600 C.3   362  LEU362      0.0001
     53  N         53.6580  -30.8400    8.7090 N.am  363  LEU363     -0.1966
     54  CA        54.5080  -31.7140    9.5080 C.3   363  LEU363      0.1728
     55  C         55.3900  -30.8680   10.3920 C.2   363  LEU363      0.2616
     56  O         55.8930  -29.7850    9.9710 O.2   363  LEU363     -0.2715
     57  CB        55.3670  -32.6200    8.6280 C.3   363  LEU363      0.0311
     58  CG        54.7370  -33.4390    7.4970 C.3   363  LEU363      0.0022
     59  CD1       55.8540  -34.0080    6.6960 C.3   363  LEU363      0.0001
     60  CD2       53.8220  -34.5630    7.9940 C.3   363  LEU363      0.0001
     61  N         55.6000  -31.3530   11.6140 N.am  364  ASN364     -0.1959
     62  CA        56.4640  -30.6690   12.5650 C.3   364  ASN364      0.1804
     63  C         57.9230  -30.8650   12.1450 C.2   364  ASN364      0.2463
     64  O         58.3520  -32.0030   12.0070 O.2   364  ASN364     -0.2730
     65  CB        56.1840  -31.2580   13.9500 C.3   364  ASN364      0.1195
     66  CG        56.9790  -30.6030   15.0900 C.2   364  ASN364      0.2630
     67  OD1       57.8690  -29.7500   14.9070 O.2   364  ASN364     -0.2716
     68  ND2       56.6640  -31.0560   16.3040 N.am  364  ASN364     -0.0877
     69  N         58.6970  -29.7600   11.9350 N.am  365  PRO365     -0.2727
     70  CA        60.0980  -29.9710   11.5500 C.3   365  PRO365      0.1402
     71  C         60.9380  -30.6250   12.6340 C.2   365  PRO365      0.2269
     72  O         62.0430  -31.0650   12.3410 O.2   365  PRO365     -0.2865
     73  CB        60.5900  -28.5580   11.2520 C.3   365  PRO365      0.0296
     74  CG        59.7250  -27.7060   12.1610 C.3   365  PRO365      0.0237
     75  CD        58.3820  -28.3180   12.0320 C.3   365  PRO365      0.0939
     76  N         59.8580  -34.5050   11.6810 N.3   368  PHE368     -0.1227
     77  CA        60.1120  -34.9420   10.3120 C.3   368  PHE368      0.1736
     78  C         61.1390  -34.0610    9.6250 C.2   368  PHE368      0.2596
     79  O         61.2900  -32.8880    9.9690 O.2   368  PHE368     -0.2718
     80  CB        58.8460  -34.8730    9.4440 C.3   368  PHE368      0.0547
     81  CG        57.7720  -35.8590    9.7990 C.ar  368  PHE368     -0.0202
     82  CD1       56.7080  -35.4770   10.6450 C.ar  368  PHE368     -0.0042
     83  CD2       57.7840  -37.1500    9.2560 C.ar  368  PHE368     -0.0042
     84  CE1       55.6750  -36.3620   10.9820 C.ar  368  PHE368     -0.0003
     85  CE2       56.7500  -38.0430    9.5670 C.ar  368  PHE368     -0.0003
     86  CZ        55.7010  -37.6540   10.4350 C.ar  368  PHE368     -0.0000
     87  N         61.7970  -34.6420    8.6250 N.am  369  SER369     -0.1938
     88  CA        62.7250  -33.9520    7.7700 C.3   369  SER369      0.2055
     89  C         62.3890  -34.2650    6.2950 C.2   369  SER369      0.2642
     90  O         62.1850  -35.4270    5.9170 O.2   369  SER369     -0.2714
     91  CB        64.1390  -34.4080    8.1200 C.3   369  SER369      0.2130
     92  OG        65.0980  -33.5960    7.4650 O.3   369  SER369     -0.2179
     93  N         62.2700  -33.2330    5.4670 N.am  370  ILE370     -0.1977
     94  CA        61.9600  -33.4620    4.0670 C.3   370  ILE370      0.1596
     95  C         63.2380  -33.1460    3.3460 C.2   370  ILE370      0.2287
     96  O         63.8090  -32.0750    3.5410 O.2   370  ILE370     -0.2864
     97  CB        60.7710  -32.5840    3.5520 C.3   370  ILE370      0.0276
     98  CG1       59.4380  -33.0850    4.1580 C.3   370  ILE370      0.0022
     99  CG2       60.7430  -32.5530    2.0080 C.3   370  ILE370      0.0022
    100  CD1       58.2950  -32.1940    3.9770 C.3   370  ILE370      0.0001
@<TRIPOS>BOND
     1    25    27   ar
     2    25    23   ar
     3    22    19    1
     4    22    23    1
     5    18    19    1
     6    20    19    1
     7    20    21    2
     8    27    28   ar
     9     1     2    1
    10    23    24   ar
    11     2     3    1
    12     2     5    1
    13    28    26   ar
    14    24    26   ar
    15     4     3    2
    16    99    97    1
    17     7     6    1
    18     9    10    1
    19     5     6    1
    20    29    30    1
    21     6     8    1
    22    10    11    1
    23    10    13    1
    24    11    12    2
    25    95    96    2
    26    95    94    1
    27    97    94    1
    28    97    98    1
    29    30    31    1
    30    30    33    1
    31    31    32    2
    32    33    34    1
    33   100    98    1
    34    94    93    1
    35    13    14    1
    36    14    15    1
    37    34    36   am
    38    34    35    2
    39    93    89   am
    40    52    50    1
    41    90    89    2
    42    17    15   ar
    43    15    16   ar
    44    89    88    1
    45    59    58    1
    46    44    42    1
    47    50    51    1
    48    50    49    1
    49    92    91    1
    50    58    60    1
    51    58    57    1
    52    43    42    1
    53    88    91    1
    54    88    87    1
    55    42    41    1
    56    46    49    1
    57    46    45    1
    58    46    47    1
    59    41    38    1
    60    87    78   am
    61    57    54    1
    62    53    47   am
    63    53    54    1
    64    47    48    2
    65    38    39    1
    66    38    37    1
    67    83    85   ar
    68    83    81   ar
    69    39    40    2
    70    80    81    1
    71    80    77    1
    72    54    55    1
    73    85    86   ar
    74    78    79    2
    75    78    77    1
    76    81    82   ar
    77    56    55    2
    78    77    76    1
    79    55    61   am
    80    86    84   ar
    81    82    84   ar
    82    73    70    1
    83    73    74    1
    84    70    69    1
    85    70    71    1
    86    61    62    1
    87    69    75    1
    88    69    63   am
    89    64    63    2
    90    75    74    1
    91    63    62    1
    92    72    71    2
    93    62    65    1
    94    65    66    1
    95    67    66    2
    96    66    68   am
