@<TRIPOS>MOLECULE
tmp/2pebA00.pdb
 82 79 0 0 0
SMALL
GASTEIGER

@<TRIPOS>ATOM
      1  N         21.2080    1.5670   36.0220 N.3    15  TYR15      -0.1227
      2  CA        20.9760    1.0120   37.3290 C.3    15  TYR15       0.1736
      3  C         19.5010    1.0570   37.7170 C.2    15  TYR15       0.2595
      4  O         18.7480    1.9610   37.3180 O.2    15  TYR15      -0.2718
      5  CB        21.8560    1.7110   38.3780 C.3    15  TYR15       0.0548
      6  CG        23.3130    1.5680   38.0360 C.ar   15  TYR15      -0.0200
      7  CD1       24.0120    0.4440   38.4290 C.ar   15  TYR15      -0.0009
      8  CD2       24.0000    2.5410   37.2810 C.ar   15  TYR15      -0.0009
      9  CE1       25.3380    0.2590   38.0760 C.ar   15  TYR15       0.0417
     10  CE2       25.3590    2.3750   36.9460 C.ar   15  TYR15       0.0417
     11  CZ        26.0150    1.2200   37.3630 C.ar   15  TYR15       0.1957
     12  OH        27.3200    0.9760   37.0370 O.3    15  TYR15      -0.2866
     13  N         19.1000    0.0780   38.5110 N.am   16  PHE16      -0.1962
     14  CA        17.7230    0.0290   38.9860 C.3    16  PHE16       0.1771
     15  C         17.6120   -0.7980   40.2590 C.2    16  PHE16       0.2619
     16  O         18.5220   -1.5170   40.6490 O.2    16  PHE16      -0.2715
     17  CB        16.8060   -0.5560   37.8910 C.3    16  PHE16       0.0574
     18  CG        17.1820   -1.9470   37.4980 C.ar   16  PHE16      -0.0200
     19  CD1       16.6940   -3.0400   38.2060 C.ar   16  PHE16      -0.0042
     20  CD2       18.1160   -2.1570   36.4730 C.ar   16  PHE16      -0.0042
     21  CE1       17.0870   -4.3080   37.8900 C.ar   16  PHE16      -0.0003
     22  CE2       18.5150   -3.4280   36.1680 C.ar   16  PHE16      -0.0003
     23  CZ        18.0070   -4.4960   36.8590 C.ar   16  PHE16      -0.0000
     24  N         16.4580   -0.6990   40.9000 N.am   17  ASP17      -0.1971
     25  CA        16.1060   -1.6300   41.9770 C.3    17  ASP17       0.1709
     26  C         14.6930   -2.1250   41.7080 C.2    17  ASP17       0.2293
     27  O         14.1040   -1.7500   40.7000 O.2    17  ASP17      -0.2864
     28  CB        16.2740   -0.9910   43.3580 C.3    17  ASP17       0.1436
     29  CG        15.4800    0.2750   43.5310 C.2    17  ASP17       0.3671
     30  OD1       14.4840    0.4870   42.8290 O.co2  17  ASP17      -0.2456
     31  OD2       15.8590    1.0840   44.3990 O.co2  17  ASP17      -0.2456
     32  N         12.1380    0.5510   40.7300 N.3    20  SER20      -0.1217
     33  CA        12.3350    1.2160   39.4510 C.3    20  SER20       0.1889
     34  C         12.5260    0.2310   38.2990 C.2    20  SER20       0.2288
     35  O         12.8180    0.6480   37.1790 O.2    20  SER20      -0.2866
     36  CB        13.5610    2.1260   39.5130 C.3    20  SER20       0.2089
     37  OG        14.7040    1.3930   39.9000 O.3    20  SER20      -0.2183
     38  N         10.3880    1.0000   35.1340 N.3    23  VAL23      -0.1245
     39  CA        10.9240    2.1460   34.3990 C.3    23  VAL23       0.1561
     40  C         12.1870    1.7360   33.5980 C.2    23  VAL23       0.2260
     41  O         12.3890    2.0970   32.4380 O.2    23  VAL23      -0.2867
     42  CB        11.2870    3.3260   35.3720 C.3    23  VAL23       0.0252
     43  CG1       12.0540    4.4130   34.6420 C.3    23  VAL23       0.0019
     44  CG2       10.0120    3.8670   36.0190 C.3    23  VAL23       0.0019
     45  N         24.6200   -1.9270   42.2960 N.3    52  LYS52      -0.1245
     46  CA        23.1850   -1.9920   42.1960 C.3    52  LYS52       0.1561
     47  C         22.8770   -2.8460   40.9560 C.2    52  LYS52       0.2260
     48  O         23.7040   -2.9530   40.0740 O.2    52  LYS52      -0.2867
     49  CB        22.6450   -0.5570   42.0570 C.3    52  LYS52       0.0271
     50  CG        21.1730   -0.4160   42.2630 C.3    52  LYS52       0.0035
     51  CD        20.7170    1.0570   42.2430 C.3    52  LYS52       0.0206
     52  CE        21.0020    1.7940   43.5540 C.3    52  LYS52       0.1093
     53  NZ        20.1450    3.0180   43.7020 N.3    52  LYS52      -0.1314
     54  N         13.9260    8.9630   33.0670 N.3    74  GLU74      -0.1231
     55  CA        12.9100    8.8820   34.0770 C.3    74  GLU74       0.1699
     56  C         13.4890    8.5960   35.4620 C.2    74  GLU74       0.2593
     57  O         12.9900    7.7330   36.1980 O.2    74  GLU74      -0.2718
     58  CB        11.9100    7.8010   33.7110 C.3    74  GLU74       0.0402
     59  CG        11.0590    8.1350   32.5470 C.3    74  GLU74       0.1161
     60  CD         9.9120    7.1530   32.4290 C.2    74  GLU74       0.3649
     61  OE1        8.9910    7.2110   33.2860 O.co2  74  GLU74      -0.2457
     62  OE2        9.9440    6.3190   31.4940 O.co2  74  GLU74      -0.2457
     63  N         14.4960    9.3640   35.8420 N.am   75  GLY75      -0.1942
     64  CA        14.9890    9.3560   37.1890 C.3    75  GLY75       0.2014
     65  C         15.9870    8.2670   37.4850 C.2    75  GLY75       0.2639
     66  O         16.4880    8.2090   38.6010 O.2    75  GLY75      -0.2714
     67  N         16.2790    7.4150   36.5060 N.am   76  LEU76      -0.1963
     68  CA        17.2810    6.3540   36.6980 C.3    76  LEU76       0.1728
     69  C         18.6990    6.9180   36.6980 C.2    76  LEU76       0.2616
     70  O         18.9910    7.8970   36.0090 O.2    76  LEU76      -0.2715
     71  CB        17.1660    5.3340   35.5640 C.3    76  LEU76       0.0311
     72  CG        15.8500    4.5700   35.5440 C.3    76  LEU76       0.0022
     73  CD1       15.8040    3.7200   34.2550 C.3    76  LEU76       0.0001
     74  CD2       15.6560    3.6980   36.8050 C.3    76  LEU76       0.0001
     75  N         19.5770    6.3140   37.4860 N.am   77  ASP77      -0.1971
     76  CA        20.9850    6.7010   37.4370 C.3    77  ASP77       0.1709
     77  C         21.6680    5.8510   36.3810 C.2    77  ASP77       0.2293
     78  O         21.4250    4.6170   36.3130 O.2    77  ASP77      -0.2864
     79  CB        21.6550    6.5010   38.7920 C.3    77  ASP77       0.1436
     80  CG        20.9320    7.2460   39.9090 C.2    77  ASP77       0.3671
     81  OD1       20.5620    8.4230   39.6750 O.co2  77  ASP77      -0.2456
     82  OD2       20.7000    6.6800   41.0100 O.co2  77  ASP77      -0.2456
@<TRIPOS>BOND
     1    62    60   ar
     2    60    59    1
     3    60    61   ar
     4    41    40    2
     5    59    58    1
     6    54    55    1
     7    40    39    1
     8    58    55    1
     9    55    56    1
    10    73    72    1
    11    39    38    1
    12    39    42    1
    13    43    42    1
    14    42    44    1
    15    56    63   am
    16    56    57    2
    17    72    71    1
    18    72    74    1
    19    71    68    1
    20    63    64    1
    21    70    69    2
    22     1     2    1
    23    22    20   ar
    24    22    23   ar
    25    78    77    2
    26    77    76    1
    27    20    18   ar
    28    67    68    1
    29    67    65   am
    30    68    69    1
    31    69    75   am
    32    23    21   ar
    33    10     8   ar
    34    10    11   ar
    35    12    11    1
    36    35    34    2
    37    64    65    1
    38     8     6   ar
    39     4     3    2
    40     2     3    1
    41     2     5    1
    42    11     9   ar
    43    76    75    1
    44    76    79    1
    45    65    66    2
    46    18    17    1
    47    18    19   ar
    48     3    13   am
    49    21    19   ar
    50    17    14    1
    51     6     5    1
    52     6     7   ar
    53     9     7   ar
    54    34    33    1
    55    13    14    1
    56    79    80    1
    57    14    15    1
    58    33    36    1
    59    33    32    1
    60    36    37    1
    61    81    80   ar
    62    80    82   ar
    63    48    47    2
    64    15    16    2
    65    15    24   am
    66    27    26    2
    67    24    25    1
    68    47    46    1
    69    26    25    1
    70    25    28    1
    71    49    46    1
    72    49    50    1
    73    46    45    1
    74    51    50    1
    75    51    52    1
    76    30    29   ar
    77    28    29    1
    78    29    31   ar
    79    52    53    1
