@<TRIPOS>MOLECULE
tmp/2pehA00.pdb
 135 128 0 0 0
SMALL
GASTEIGER

@<TRIPOS>ATOM
      1  N         11.5020   -3.4470   -8.2930 N.3    12  LEU12      -0.1245
      2  CA        11.5610   -3.5540   -6.8400 C.3    12  LEU12       0.1561
      3  C         12.3010   -2.3840   -6.2140 C.2    12  LEU12       0.2260
      4  O         13.4280   -2.0500   -6.6190 O.2    12  LEU12      -0.2867
      5  CB        12.2160   -4.8590   -6.4200 C.3    12  LEU12       0.0270
      6  CG        11.6790   -6.1320   -7.0750 C.3    12  LEU12       0.0019
      7  CD1       12.4030   -7.3470   -6.5210 C.3    12  LEU12       0.0001
      8  CD2       10.1570   -6.2780   -6.9430 C.3    12  LEU12       0.0001
      9  N         14.4430   -2.4650   -1.3480 N.3    15  MET15      -0.1230
     10  CA        15.0540   -3.7540   -1.0170 C.3    15  MET15       0.1702
     11  C         16.2040   -3.5410   -0.0490 C.2    15  MET15       0.2592
     12  O         16.3660   -4.2970    0.9170 O.2    15  MET15      -0.2718
     13  CB        15.5510   -4.4650   -2.2790 C.3    15  MET15       0.0401
     14  CG        14.4260   -4.9380   -3.1610 C.3    15  MET15       0.0596
     15  SD        13.8070   -6.5630   -2.6990 S.3    15  MET15      -0.1393
     16  CE        15.1190   -7.5880   -3.3130 C.3    15  MET15       0.0692
     17  N         17.0290   -2.5540   -0.3910 N.am   16  VAL16      -0.1980
     18  CA        18.1460   -2.0630    0.4180 C.3    16  VAL16       0.1595
     19  C         18.1930   -0.5410    0.2790 C.2    16  VAL16       0.2287
     20  O         17.6220    0.0130   -0.6640 O.2    16  VAL16      -0.2864
     21  CB        19.5190   -2.6530   -0.0330 C.3    16  VAL16       0.0276
     22  CG1       19.5300   -4.1690    0.1320 C.3    16  VAL16       0.0022
     23  CG2       19.8840   -2.2310   -1.4910 C.3    16  VAL16       0.0022
     24  N         24.9450   -4.7310   -1.8530 N.3    22  ASP22      -0.1239
     25  CA        25.9940   -5.6970   -1.5510 C.3    22  ASP22       0.1674
     26  C         26.1930   -6.6840   -2.6920 C.2    22  ASP22       0.2266
     27  O         25.3820   -6.7490   -3.6260 O.2    22  ASP22      -0.2867
     28  CB        25.5890   -6.4580   -0.2920 C.3    22  ASP22       0.1410
     29  CG        24.2340   -7.1550   -0.4450 C.2    22  ASP22       0.3668
     30  OD1       23.2030   -6.5270   -0.1540 O.co2  22  ASP22      -0.2456
     31  OD2       24.2070   -8.3050   -0.8960 O.co2  22  ASP22      -0.2456
     32  N         25.7250   -9.8000   -2.9620 N.3    24  ASP24      -0.1225
     33  CA        24.7840  -10.9280   -3.0590 C.3    24  ASP24       0.1805
     34  C         23.3620  -10.5380   -3.4260 C.2    24  ASP24       0.2597
     35  O         22.5270  -11.4130   -3.6250 O.2    24  ASP24      -0.2718
     36  CB        24.7310  -11.7120   -1.7500 C.3    24  ASP24       0.1424
     37  CG        26.0750  -12.3270   -1.3650 C.2    24  ASP24       0.3668
     38  OD1       26.6640  -13.0670   -2.1640 O.co2  24  ASP24      -0.2456
     39  OD2       26.5330  -12.0830   -0.2380 O.co2  24  ASP24      -0.2456
     40  N         23.0860   -9.2390   -3.4980 N.am   25  LEU25      -0.1979
     41  CA        21.7330   -8.7520   -3.6850 C.3    25  LEU25       0.1596
     42  C         21.1040   -9.2520   -4.9850 C.2    25  LEU25       0.2287
     43  O         19.9460   -9.6810   -5.0020 O.2    25  LEU25      -0.2864
     44  CB        21.7030   -7.2070   -3.6210 C.3    25  LEU25       0.0297
     45  CG        20.3390   -6.5330   -3.7140 C.3    25  LEU25       0.0022
     46  CD1       19.3470   -7.0840   -2.6920 C.3    25  LEU25       0.0001
     47  CD2       20.4870   -4.9770   -3.5540 C.3    25  LEU25       0.0001
     48  N         20.4250  -13.2170   -4.8930 N.3    28  GLU28      -0.1231
     49  CA        19.3020  -13.3750   -3.9680 C.3    28  GLU28       0.1699
     50  C         17.9840  -12.9690   -4.5880 C.2    28  GLU28       0.2592
     51  O         16.9960  -13.6720   -4.4210 O.2    28  GLU28      -0.2718
     52  CB        19.4920  -12.5720   -2.6700 C.3    28  GLU28       0.0402
     53  CG        19.9290  -13.4120   -1.5130 C.3    28  GLU28       0.1161
     54  CD        20.2690  -12.6120   -0.2920 C.2    28  GLU28       0.3649
     55  OE1       21.4670  -12.3720   -0.0640 O.co2  28  GLU28      -0.2457
     56  OE2       19.3390  -12.2620    0.4590 O.co2  28  GLU28      -0.2457
     57  N         17.9640  -11.8210   -5.2740 N.am   29  THR29      -0.1953
     58  CA        16.7630  -11.3540   -5.9780 C.3    29  THR29       0.1897
     59  C         16.4040  -12.3000   -7.1270 C.2    29  THR29       0.2313
     60  O         15.3080  -12.8340   -7.1710 O.2    29  THR29      -0.2863
     61  CB        16.9240   -9.8840   -6.4840 C.3    29  THR29       0.1794
     62  OG1       17.4050   -9.0590   -5.4150 O.3    29  THR29      -0.2208
     63  CG2       15.5980   -9.3020   -6.9740 C.3    29  THR29       0.0378
     64  N         15.1780  -16.0360   -6.3310 N.3    32  GLU32      -0.1231
     65  CA        13.8200  -16.0610   -5.8020 C.3    32  GLU32       0.1699
     66  C         12.7870  -15.7910   -6.9150 C.2    32  GLU32       0.2592
     67  O         11.7970  -16.4920   -7.0140 O.2    32  GLU32      -0.2718
     68  CB        13.6810  -15.0450   -4.6630 C.3    32  GLU32       0.0402
     69  CG        12.3110  -14.9680   -3.9950 C.3    32  GLU32       0.1161
     70  CD        11.9130  -16.2400   -3.2950 C.2    32  GLU32       0.3649
     71  OE1       12.7880  -17.0350   -2.9590 O.co2  32  GLU32      -0.2457
     72  OE2       10.7060  -16.4230   -3.0450 O.co2  32  GLU32      -0.2457
     73  N         13.0390  -14.8060   -7.7690 N.am   33  CYS33      -0.1970
     74  CA        12.0590  -14.3890   -8.7760 C.3    33  CYS33       0.1712
     75  C         11.8530  -15.4050   -9.9050 C.2    33  CYS33       0.2296
     76  O         10.8450  -15.3440  -10.6290 O.2    33  CYS33      -0.2864
     77  CB        12.4630  -13.0490   -9.3970 C.3    33  CYS33       0.0983
     78  SG        12.2700  -11.6460   -8.3350 S.3    33  CYS33      -0.0798
     79  N          5.4460  -10.0520   -4.4640 N.3    75  LEU75      -0.1245
     80  CA         6.5560   -9.2850   -3.9170 C.3    75  LEU75       0.1561
     81  C          6.1270   -7.9420   -3.3230 C.2    75  LEU75       0.2260
     82  O          6.8030   -7.4080   -2.4440 O.2    75  LEU75      -0.2867
     83  CB         7.6140   -9.0440   -4.9950 C.3    75  LEU75       0.0270
     84  CG         8.2670  -10.2990   -5.5560 C.3    75  LEU75       0.0019
     85  CD1        9.0160  -10.0180   -6.8880 C.3    75  LEU75       0.0001
     86  CD2        9.1920  -10.8790   -4.4900 C.3    75  LEU75       0.0001
     87  N          6.0220   -7.5210    0.5970 N.3    78  ARG78      -0.1231
     88  CA         6.7500   -8.6360    1.1700 C.3    78  ARG78       0.1694
     89  C          8.0010   -8.1250    1.8780 C.2    78  ARG78       0.2592
     90  O          8.5620   -7.1160    1.4880 O.2    78  ARG78      -0.2718
     91  CB         7.1160   -9.6130    0.0550 C.3    78  ARG78       0.0321
     92  CG         7.6040  -10.9690    0.5150 C.3    78  ARG78       0.0489
     93  CD         8.1420  -11.7830   -0.6450 C.3    78  ARG78       0.2205
     94  NE         8.6720  -13.0680   -0.1920 N.pl3  78  ARG78      -0.0865
     95  CZ         9.1520  -14.0140   -0.9970 C.cat  78  ARG78       0.5346
     96  NH1        9.1900  -13.8300   -2.3160 N.pl3  78  ARG78       0.1354
     97  NH2        9.6050  -15.1490   -0.4720 N.pl3  78  ARG78       0.1354
     98  N          8.4270   -8.8180    2.9350 N.am   79  TYR79      -0.1962
     99  CA         9.6620   -8.4670    3.6230 C.3    79  TYR79       0.1771
    100  C         10.8900   -8.9480    2.8640 C.2    79  TYR79       0.2620
    101  O         10.9160  -10.0810    2.3530 O.2    79  TYR79      -0.2715
    102  CB         9.7100   -9.0730    5.0260 C.3    79  TYR79       0.0574
    103  CG         8.9550   -8.3210    6.1110 C.ar   79  TYR79      -0.0198
    104  CD1        9.1660   -6.9750    6.3300 C.ar   79  TYR79      -0.0009
    105  CD2        8.0840   -8.9930    6.9610 C.ar   79  TYR79      -0.0009
    106  CE1        8.4850   -6.2860    7.3280 C.ar   79  TYR79       0.0417
    107  CE2        7.4100   -8.3360    7.9590 C.ar   79  TYR79       0.0417
    108  CZ         7.6160   -6.9740    8.1500 C.ar   79  TYR79       0.1957
    109  OH         6.9540   -6.3210    9.1630 O.3    79  TYR79      -0.2866
    110  N         11.9180   -8.0940    2.8540 N.am   80  PHE80      -0.1960
    111  CA        13.2700   -8.4660    2.4350 C.3    80  PHE80       0.1771
    112  C         14.2920   -7.7990    3.3480 C.2    80  PHE80       0.2620
    113  O         14.4660   -6.5740    3.3310 O.2    80  PHE80      -0.2715
    114  CB        13.5420   -8.0980    0.9860 C.3    80  PHE80       0.0574
    115  CG        14.9290   -8.4960    0.4950 C.ar   80  PHE80      -0.0200
    116  CD1       15.1520   -9.7610   -0.0610 C.ar   80  PHE80      -0.0042
    117  CD2       16.0050   -7.5990    0.5740 C.ar   80  PHE80      -0.0042
    118  CE1       16.4350  -10.1370   -0.5190 C.ar   80  PHE80      -0.0003
    119  CE2       17.2890   -7.9460    0.0980 C.ar   80  PHE80      -0.0003
    120  CZ        17.5040   -9.2250   -0.4340 C.ar   80  PHE80      -0.0000
    121  N         14.9290   -8.6060    4.1810 N.am   81  GLY81      -0.1940
    122  CA        15.9560   -8.1140    5.0710 C.3    81  GLY81       0.2014
    123  C         15.4800   -7.0420    6.0230 C.2    81  GLY81       0.2639
    124  O         16.1930   -6.0520    6.2440 O.2    81  GLY81      -0.2714
    125  N         14.2670   -7.2100    6.5460 N.am   82  GLY82      -0.1954
    126  CA        13.6970   -6.2320    7.4520 C.3    82  GLY82       0.1869
    127  C         12.9270   -5.0760    6.8110 C.2    82  GLY82       0.2309
    128  O         12.3540   -4.2550    7.5390 O.2    82  GLY82      -0.2863
    129  N          9.1510   -4.3250    0.8380 N.3    85  VAL85      -0.1245
    130  CA         9.4180   -4.1460   -0.5810 C.3    85  VAL85       0.1561
    131  C          8.2230   -3.5540   -1.2760 C.2    85  VAL85       0.2260
    132  O          7.0900   -3.9150   -0.9790 O.2    85  VAL85      -0.2867
    133  CB         9.7660   -5.4800   -1.2080 C.3    85  VAL85       0.0252
    134  CG1       10.0190   -5.3290   -2.7280 C.3    85  VAL85       0.0019
    135  CG2       10.9540   -6.0760   -0.4830 C.3    85  VAL85       0.0019
@<TRIPOS>BOND
     1    76    75    2
     2    75    74    1
     3    77    74    1
     4    77    78    1
     5    74    73    1
     6     1     2    1
     7    73    66   am
     8    60    59    2
     9    59    58    1
    10     6     8    1
    11     6     7    1
    12     6     5    1
    13    67    66    2
    14    63    61    1
    15    66    65    1
    16    85    84    1
    17     2     5    1
    18     2     3    1
    19     4     3    2
    20    61    58    1
    21    61    62    1
    22    64    65    1
    23    58    57    1
    24    65    68    1
    25    84    83    1
    26    84    86    1
    27    57    50   am
    28    43    42    2
    29    83    80    1
    30    42    41    1
    31    48    49    1
    32    68    69    1
    33    50    51    2
    34    50    49    1
    35    79    80    1
    36    69    70    1
    37    49    52    1
    38    80    81    1
    39    45    44    1
    40    45    47    1
    41    45    46    1
    42    41    44    1
    43    41    40    1
    44    27    26    2
    45    35    34    2
    46    40    34   am
    47    34    33    1
    48    81    82    2
    49    16    15    1
    50    70    72   ar
    51    70    71   ar
    52    14    15    1
    53    14    13    1
    54    33    32    1
    55    33    36    1
    56   134   133    1
    57    26    25    1
    58    52    53    1
    59    96    95    1
    60    13    10    1
    61    38    37   ar
    62    24    25    1
    63    36    37    1
    64    25    28    1
    65    53    54    1
    66    23    21    1
    67    37    39   ar
    68     9    10    1
    69   131   132    2
    70   131   130    1
    71   133   130    1
    72   133   135    1
    73    10    11    1
    74    95    97    1
    75    95    94    2
    76    31    29   ar
    77    20    19    2
    78    93    94    1
    79    93    92    1
    80   130   129    1
    81   118   120   ar
    82   118   116   ar
    83    29    28    1
    84    29    30   ar
    85   120   119   ar
    86    17    11   am
    87    17    18    1
    88    54    55   ar
    89    54    56   ar
    90   116   115   ar
    91    11    12    2
    92    21    22    1
    93    21    18    1
    94    91    92    1
    95    91    88    1
    96   119   117   ar
    97    19    18    1
    98   115   117   ar
    99   115   114    1
   100    87    88    1
   101   114   111    1
   102    88    89    1
   103    90    89    2
   104    89    98   am
   105   101   100    2
   106   111   110    1
   107   111   112    1
   108   110   100   am
   109   100    99    1
   110    98    99    1
   111   113   112    2
   112   112   121   am
   113    99   102    1
   114   121   122    1
   115   102   103    1
   116   122   123    1
   117   123   124    2
   118   123   125   am
   119   103   104   ar
   120   103   105   ar
   121   104   106   ar
   122   125   126    1
   123   127   126    1
   124   127   128    2
   125   105   107   ar
   126   106   108   ar
   127   107   108   ar
   128   108   109    1
