@<TRIPOS>MOLECULE
tmp/2pelC00.pdb
 80 74 0 0 0
SMALL
GASTEIGER

@<TRIPOS>ATOM
      1  N         51.6860  -12.7650   25.6030 N.3    80  ASP80      -0.1239
      2  CA        51.6230  -11.3600   25.1910 C.3    80  ASP80       0.1674
      3  C         50.1570  -11.0480   24.8310 C.2    80  ASP80       0.2266
      4  O         49.6160  -11.7970   23.9910 O.2    80  ASP80      -0.2867
      5  CB        52.4270  -11.1410   23.9070 C.3    80  ASP80       0.1410
      6  CG        53.8900  -10.8190   24.0880 C.2    80  ASP80       0.3668
      7  OD1       54.4570  -11.4720   24.9850 O.co2  80  ASP80      -0.2456
      8  OD2       54.4530   -9.9610   23.3920 O.co2  80  ASP80      -0.2456
      9  N         47.8090  -10.1450   22.7140 N.3    82  ALA82      -0.1231
     10  CA        47.7230   -9.9510   21.2600 C.3    82  ALA82       0.1694
     11  C         46.5290  -10.7700   20.7680 C.2    82  ALA82       0.2592
     12  O         46.1390  -11.6770   21.5280 O.2    82  ALA82      -0.2718
     13  CB        49.0380  -10.3130   20.5940 C.3    82  ALA82       0.0304
     14  N         45.9400  -10.4960   19.6080 N.am   83  ASP83      -0.1974
     15  CA        46.3310   -9.4470   18.6680 C.3    83  ASP83       0.1709
     16  C         45.3560   -8.2720   18.6070 C.2    83  ASP83       0.2293
     17  O         45.8170   -7.1720   18.2720 O.2    83  ASP83      -0.2864
     18  CB        46.6190  -10.0960   17.3060 C.3    83  ASP83       0.1436
     19  CG        48.0580  -10.6210   17.3280 C.2    83  ASP83       0.3671
     20  OD1       48.9830   -9.8280   17.0960 O.co2  83  ASP83      -0.2456
     21  OD2       48.2220  -11.8160   17.6240 O.co2  83  ASP83      -0.2456
     22  N         47.4010  -14.0660   14.2190 N.3   103  GLY103     -0.1210
     23  CA        48.2720  -12.9550   14.5990 C.3   103  GLY103      0.1956
     24  C         47.7700  -11.5980   14.1410 C.2   103  GLY103      0.2612
     25  O         46.5800  -11.2360   14.2120 O.2   103  GLY103     -0.2717
     26  N         48.7100  -10.8190   13.6450 N.am  104  GLY104     -0.1956
     27  CA        48.5590   -9.4720   13.1510 C.3   104  GLY104      0.1869
     28  C         47.7140   -9.2850   11.9030 C.2   104  GLY104      0.2309
     29  O         47.6390   -8.1340   11.4300 O.2   104  GLY104     -0.2863
     30  N         48.8490   -4.9440   19.4040 N.3   125  TYR125     -0.1241
     31  CA        50.2180   -5.4920   19.2110 C.3   125  TYR125      0.1605
     32  C         50.7710   -4.7810   17.9830 C.2   125  TYR125      0.2264
     33  O         50.0440   -4.8150   16.9780 O.2   125  TYR125     -0.2867
     34  CB        50.2620   -7.0390   19.0970 C.3   125  TYR125      0.0534
     35  CG        51.7230   -7.4660   18.9790 C.ar  125  TYR125     -0.0201
     36  CD1       52.5280   -7.6970   20.1060 C.ar  125  TYR125     -0.0009
     37  CD2       52.3090   -7.5710   17.7210 C.ar  125  TYR125     -0.0009
     38  CE1       53.8850   -8.0290   19.9780 C.ar  125  TYR125      0.0417
     39  CE2       53.6620   -7.9080   17.5680 C.ar  125  TYR125      0.0417
     40  CZ        54.4480   -8.1280   18.6980 C.ar  125  TYR125      0.1957
     41  OH        55.7720   -8.4470   18.4830 O.3   125  TYR125     -0.2866
     42  N         52.7570   -4.5930   14.7810 N.3   127  ASN127     -0.1240
     43  CA        53.3990   -5.3900   13.7310 C.3   127  ASN127      0.1653
     44  C         53.9970   -4.4060   12.7140 C.2   127  ASN127      0.2266
     45  O         53.1770   -3.7610   12.0390 O.2   127  ASN127     -0.2867
     46  CB        52.4850   -6.2740   12.9000 C.3   127  ASN127      0.1155
     47  CG        51.6180   -7.1990   13.6990 C.2   127  ASN127      0.2627
     48  OD1       50.8620   -6.6560   14.5170 O.2   127  ASN127     -0.2716
     49  ND2       51.7820   -8.4960   13.4240 N.am  127  ASN127     -0.0877
     50  N         55.4660   -5.2050   10.1570 N.3   129  GLU129     -0.1245
     51  CA        55.2710   -5.8060    8.8280 C.3   129  GLU129      0.1567
     52  C         54.0230   -5.1750    8.2090 C.2   129  GLU129      0.2260
     53  O         53.8880   -5.1960    6.9620 O.2   129  GLU129     -0.2867
     54  CB        55.2450   -7.3150    8.8790 C.3   129  GLU129      0.0388
     55  CG        54.3380   -8.1340    9.7570 C.3   129  GLU129      0.1160
     56  CD        54.5730   -8.3350   11.2190 C.2   129  GLU129      0.3649
     57  OE1       55.4990   -7.6280   11.6980 O.co2 129  GLU129     -0.2457
     58  OE2       53.9110   -9.1080   11.9240 O.co2 129  GLU129     -0.2457
     59  N         48.6590  -15.3820   18.0640 N.3   211  SER211     -0.1202
     60  CA        49.7390  -16.2770   17.6050 C.3   211  SER211      0.2020
     61  C         50.1070  -17.2670   18.7070 C.2   211  SER211      0.2619
     62  O         49.3160  -17.5190   19.6290 O.2   211  SER211     -0.2717
     63  CB        50.8970  -15.4190   17.1310 C.3   211  SER211      0.2103
     64  OG        51.4370  -14.6860   18.2210 O.3   211  SER211     -0.2182
     65  N         51.2950  -17.7910   18.5510 N.am  212  LEU212     -0.1965
     66  CA        51.8520  -18.8280   19.4220 C.3   212  LEU212      0.1728
     67  C         52.1890  -18.2770   20.8240 C.2   212  LEU212      0.2617
     68  O         51.8500  -18.8840   21.8500 O.2   212  LEU212     -0.2715
     69  CB        53.1030  -19.3930   18.7450 C.3   212  LEU212      0.0311
     70  CG        53.7530  -20.5440   19.5040 C.3   212  LEU212      0.0022
     71  CD1       54.0300  -21.7630   18.6190 C.3   212  LEU212      0.0001
     72  CD2       55.1020  -20.1540   20.1070 C.3   212  LEU212      0.0001
     73  N         52.8490  -17.1290   20.8620 N.am  213  GLY213     -0.1940
     74  CA        53.2840  -16.5130   22.1390 C.3   213  GLY213      0.2014
     75  C         52.4280  -15.2950   22.5090 C.2   213  GLY213      0.2639
     76  O         52.7510  -14.5270   23.4340 O.2   213  GLY213     -0.2714
     77  N         51.4610  -15.0890   21.6300 N.am  214  GLY214     -0.1954
     78  CA        50.6490  -13.8640   21.6690 C.3   214  GLY214      0.1869
     79  C         49.1720  -14.2690   21.7700 C.2   214  GLY214      0.2309
     80  O         48.6130  -14.6220   20.7220 O.2   214  GLY214     -0.2863
@<TRIPOS>BOND
     1    53    52    2
     2    52    51    1
     3    51    54    1
     4    51    50    1
     5    54    55    1
     6    55    56    1
     7    56    57   ar
     8    56    58   ar
     9    29    28    2
    10    28    27    1
    11    45    44    2
    12    44    43    1
    13    46    47    1
    14    46    43    1
    15    27    26    1
    16    49    47   am
    17    26    24   am
    18    47    48    2
    19    43    42    1
    20    24    25    2
    21    24    23    1
    22    22    23    1
    23    33    32    2
    24    20    19   ar
    25    63    60    1
    26    63    64    1
    27    18    19    1
    28    18    15    1
    29    19    21   ar
    30    39    37   ar
    31    39    40   ar
    32    60    59    1
    33    60    61    1
    34    37    35   ar
    35    32    31    1
    36    17    16    2
    37    41    40    1
    38    65    61   am
    39    65    66    1
    40    16    15    1
    41    71    70    1
    42    15    14    1
    43    40    38   ar
    44    61    62    2
    45    69    66    1
    46    69    70    1
    47    35    34    1
    48    35    36   ar
    49    34    31    1
    50    31    30    1
    51    66    67    1
    52    70    72    1
    53    14    11   am
    54    38    36   ar
    55    13    10    1
    56    80    79    2
    57    11    10    1
    58    11    12    2
    59    67    73   am
    60    67    68    2
    61    73    74    1
    62    10     9    1
    63    77    78    1
    64    77    75   am
    65    78    79    1
    66    74    75    1
    67    75    76    2
    68     8     6   ar
    69     5     6    1
    70     5     2    1
    71     4     3    2
    72     6     7   ar
    73     3     2    1
    74     2     1    1
