@<TRIPOS>MOLECULE
tmp/2pemB00.pdb
 126 120 0 0 0
SMALL
GASTEIGER

@<TRIPOS>ATOM
      1  N         22.9330   16.8490  -43.2380 N.3    13  THR13      -0.1218
      2  CA        23.2050   16.1160  -44.4650 C.3    13  THR13       0.1862
      3  C         21.9470   16.0510  -45.3300 C.2    13  THR13       0.2287
      4  O         22.0180   16.1350  -46.5580 O.2    13  THR13      -0.2866
      5  CB        23.7420   14.7150  -44.1640 C.3    13  THR13       0.1770
      6  OG1       24.8810   14.8360  -43.3120 O.3    13  THR13      -0.2211
      7  CG2       24.1730   14.0130  -45.4310 C.3    13  THR13       0.0375
      8  N         21.3610   19.3710  -47.0610 N.3    16  SER16      -0.1202
      9  CA        22.2110   19.4380  -48.2130 C.3    16  SER16       0.2020
     10  C         21.7540   18.5010  -49.3050 C.2    16  SER16       0.2618
     11  O         21.8410   18.8330  -50.4840 O.2    16  SER16      -0.2717
     12  CB        23.6470   19.1900  -47.8160 C.3    16  SER16       0.2103
     13  OG        24.0260   20.2040  -46.9070 O.3    16  SER16      -0.2182
     14  N         21.2420   17.3410  -48.9160 N.am   17  TYR17      -0.1975
     15  CA        20.7940   16.3600  -49.9030 C.3    17  TYR17       0.1639
     16  C         19.6050   16.8760  -50.7160 C.2    17  TYR17       0.2290
     17  O         19.5830   16.7730  -51.9500 O.2    17  TYR17      -0.2864
     18  CB        20.4480   15.0080  -49.2690 C.3    17  TYR17       0.0560
     19  CG        20.1840   13.9730  -50.3240 C.ar   17  TYR17      -0.0198
     20  CD1       21.2410   13.4260  -51.0620 C.ar   17  TYR17      -0.0009
     21  CD2       18.8810   13.5750  -50.6300 C.ar   17  TYR17      -0.0009
     22  CE1       21.0200   12.4870  -52.0550 C.ar   17  TYR17       0.0417
     23  CE2       18.6410   12.6290  -51.6370 C.ar   17  TYR17       0.0417
     24  CZ        19.7210   12.0920  -52.3390 C.ar   17  TYR17       0.1957
     25  OH        19.5090   11.1530  -53.3150 O.3    17  TYR17      -0.2866
     26  N         20.6850   19.3540  -53.1660 N.3    20  TYR20      -0.1241
     27  CA        21.1640   18.6000  -54.3020 C.3    20  TYR20       0.1605
     28  C         19.9980   18.1370  -55.1690 C.2    20  TYR20       0.2264
     29  O         20.0150   18.2640  -56.3870 O.2    20  TYR20      -0.2867
     30  CB        21.9620   17.3990  -53.8000 C.3    20  TYR20       0.0534
     31  CG        21.9490   16.2330  -54.7410 C.ar   20  TYR20      -0.0201
     32  CD1       22.8110   16.1860  -55.8310 C.ar   20  TYR20      -0.0009
     33  CD2       21.0680   15.1800  -54.5490 C.ar   20  TYR20      -0.0009
     34  CE1       22.7920   15.1220  -56.7010 C.ar   20  TYR20       0.0417
     35  CE2       21.0340   14.1140  -55.4180 C.ar   20  TYR20       0.0417
     36  CZ        21.8980   14.0930  -56.4900 C.ar   20  TYR20       0.1957
     37  OH        21.8560   13.0320  -57.3570 O.3    20  TYR20      -0.2866
     38  N         18.4970   21.1310  -57.1230 N.3    23  VAL23      -0.1231
     39  CA        19.4600   21.4030  -58.1970 C.3    23  VAL23       0.1692
     40  C         19.3460   20.3620  -59.3200 C.2    23  VAL23       0.2591
     41  O         19.5080   20.6650  -60.4960 O.2    23  VAL23      -0.2718
     42  CB        20.9050   21.4570  -57.6550 C.3    23  VAL23       0.0266
     43  CG1       21.8930   21.8660  -58.7390 C.3    23  VAL23       0.0020
     44  CG2       20.9880   22.4370  -56.5240 C.3    23  VAL23       0.0020
     45  N         19.0430   19.1320  -58.9420 N.am   24  ARG24      -0.1980
     46  CA        18.9370   18.0660  -59.9060 C.3    24  ARG24       0.1597
     47  C         17.7130   18.3140  -60.7840 C.2    24  ARG24       0.2287
     48  O         17.8490   18.4650  -61.9900 O.2    24  ARG24      -0.2864
     49  CB        18.8830   16.7180  -59.1800 C.3    24  ARG24       0.0334
     50  CG        18.6500   15.5430  -60.0860 C.3    24  ARG24       0.0492
     51  CD        18.9550   14.2320  -59.3890 C.3    24  ARG24       0.2205
     52  NE        19.5010   13.2850  -60.3610 N.pl3  24  ARG24      -0.0865
     53  CZ        20.7740   13.2850  -60.7660 C.cat  24  ARG24       0.5346
     54  NH1       21.6510   14.1720  -60.2670 N.pl3  24  ARG24       0.1354
     55  NH2       21.1740   12.3940  -61.6700 N.pl3  24  ARG24       0.1354
     56  N         18.0370   21.2990  -63.0670 N.3    27  SER27      -0.1217
     57  CA        18.9410   21.0130  -64.1550 C.3    27  SER27       0.1889
     58  C         18.2740   20.1150  -65.1790 C.2    27  SER27       0.2288
     59  O         18.6460   20.0990  -66.3420 O.2    27  SER27      -0.2866
     60  CB        20.1810   20.3280  -63.6070 C.3    27  SER27       0.2089
     61  OG        21.0640   19.9900  -64.6520 O.3    27  SER27      -0.2183
     62  N         25.4170   25.1590  -65.1160 N.3    41  LEU41      -0.1231
     63  CA        25.0990   24.6040  -63.8070 C.3    41  LEU41       0.1693
     64  C         25.9960   23.4250  -63.4700 C.2    41  LEU41       0.2592
     65  O         26.5290   23.3570  -62.3610 O.2    41  LEU41      -0.2718
     66  CB        23.6220   24.2030  -63.7640 C.3    41  LEU41       0.0284
     67  CG        22.9920   23.8200  -62.4320 C.3    41  LEU41       0.0019
     68  CD1       23.3260   24.8290  -61.3440 C.3    41  LEU41       0.0001
     69  CD2       21.4930   23.6770  -62.6090 C.3    41  LEU41       0.0001
     70  N         26.1590   22.5180  -64.4400 N.am   42  GLY42      -0.1957
     71  CA        27.0830   21.3870  -64.3410 C.3    42  GLY42       0.1869
     72  C         28.5040   21.8350  -64.0550 C.2    42  GLY42       0.2309
     73  O         29.1270   21.3730  -63.0920 O.2    42  GLY42      -0.2863
     74  N         28.6100   23.1630  -60.5830 N.3    45  SER45      -0.1202
     75  CA        28.5250   22.0090  -59.6890 C.3    45  SER45       0.2020
     76  C         29.8750   21.2790  -59.5420 C.2    45  SER45       0.2618
     77  O         30.2080   20.7990  -58.4540 O.2    45  SER45      -0.2717
     78  CB        27.4230   21.0570  -60.1650 C.3    45  SER45       0.2103
     79  OG        27.3030   19.9450  -59.4290 O.3    45  SER45      -0.2182
     80  N         30.6540   21.2190  -60.6250 N.am   46  LYS46      -0.1979
     81  CA        32.0080   20.6630  -60.5620 C.3    46  LYS46       0.1596
     82  C         32.9780   21.5560  -59.7670 C.2    46  LYS46       0.2287
     83  O         33.8180   21.0440  -59.0350 O.2    46  LYS46      -0.2864
     84  CB        32.5550   20.3460  -61.9610 C.3    46  LYS46       0.0298
     85  CG        31.8380   19.1980  -62.6560 C.3    46  LYS46       0.0038
     86  CD        32.6550   18.6370  -63.8200 C.3    46  LYS46       0.0206
     87  CE        32.1630   19.1420  -65.1600 C.3    46  LYS46       0.1093
     88  NZ        30.8060   18.6240  -65.4960 N.3    46  LYS46      -0.1314
     89  N         28.4740   20.4460  -53.9210 N.3    50  ILE50      -0.1231
     90  CA        27.0670   20.6540  -53.6280 C.3    50  ILE50       0.1692
     91  C         26.6510   20.1990  -52.2310 C.2    50  ILE50       0.2592
     92  O         25.6680   20.6990  -51.6910 O.2    50  ILE50      -0.2718
     93  CB        26.1780   20.0170  -54.7200 C.3    50  ILE50       0.0266
     94  CG1       24.7400   19.7880  -54.2340 C.3    50  ILE50       0.0019
     95  CG2       26.8100   18.7170  -55.2370 C.3    50  ILE50       0.0020
     96  CD1       23.8920   21.0270  -54.1980 C.3    50  ILE50       0.0001
     97  N         27.3950   19.2730  -51.6320 N.am   51  GLN51      -0.1966
     98  CA        27.0470   18.7900  -50.2810 C.3    51  GLN51       0.1733
     99  C         27.4130   19.7680  -49.1700 C.2    51  GLN51       0.2616
    100  O         27.0700   19.5560  -48.0080 O.2    51  GLN51      -0.2715
    101  CB        27.5640   17.3650  -49.9870 C.3    51  GLN51       0.0408
    102  CG        29.0610   17.2290  -49.7850 C.3    51  GLN51       0.0908
    103  CD        29.7980   16.8670  -51.0690 C.2    51  GLN51       0.2608
    104  OE1       29.2560   16.9730  -52.1890 O.2    51  GLN51      -0.2717
    105  NE2       31.0500   16.4330  -50.9120 N.am   51  GLN51      -0.0878
    106  N         28.1060   20.8370  -49.5560 N.am   52  GLU52      -0.1977
    107  CA        28.1920   22.0570  -48.7550 C.3    52  GLU52       0.1602
    108  C         27.0790   23.0120  -49.1830 C.2    52  GLU52       0.2287
    109  O         27.3500   24.0230  -49.8400 O.2    52  GLU52      -0.2864
    110  CB        29.5400   22.7480  -48.9660 C.3    52  GLU52       0.0415
    111  CG        30.7430   21.8500  -48.7570 C.3    52  GLU52       0.1163
    112  CD        31.0510   21.5950  -47.2890 C.2    52  GLU52       0.3649
    113  OE1       30.1530   21.7590  -46.4210 O.co2  52  GLU52      -0.2457
    114  OE2       32.2120   21.2230  -47.0070 O.co2  52  GLU52      -0.2457
    115  N         27.7660   26.3640  -51.2510 N.3    56  TYR56      -0.1241
    116  CA        27.3730   26.2020  -52.6400 C.3    56  TYR56       0.1605
    117  C         26.4950   27.3660  -53.0430 C.2    56  TYR56       0.2264
    118  O         26.7510   28.0050  -54.0570 O.2    56  TYR56      -0.2867
    119  CB        26.6270   24.8940  -52.8210 C.3    56  TYR56       0.0534
    120  CG        26.2080   24.5470  -54.2290 C.ar   56  TYR56      -0.0201
    121  CD1       27.0570   23.8590  -55.0740 C.ar   56  TYR56      -0.0009
    122  CD2       24.9310   24.8510  -54.7020 C.ar   56  TYR56      -0.0009
    123  CE1       26.6640   23.4960  -56.3720 C.ar   56  TYR56       0.0417
    124  CE2       24.5260   24.4890  -56.0080 C.ar   56  TYR56       0.0417
    125  CZ        25.4080   23.8120  -56.8280 C.ar   56  TYR56       0.1957
    126  OH        25.0440   23.4340  -58.0980 O.3    56  TYR56      -0.2866
@<TRIPOS>BOND
     1    59    58    2
     2    88    87    1
     3    58    57    1
     4    87    86    1
     5    62    63    1
     6    61    60    1
     7    70    71    1
     8    70    64   am
     9    71    72    1
    10    57    60    1
    11    57    56    1
    12    72    73    2
    13    86    85    1
    14    63    66    1
    15    63    64    1
    16    66    67    1
    17    64    65    2
    18    85    84    1
    19    69    67    1
    20    67    68    1
    21    48    47    2
    22    84    81    1
    23    55    53    1
    24    47    46    1
    25    53    52    2
    26    53    54    1
    27    80    81    1
    28    80    76   am
    29    74    75    1
    30    81    82    1
    31    41    40    2
    32    52    51    1
    33    78    75    1
    34    78    79    1
    35    50    51    1
    36    50    49    1
    37    46    49    1
    38    46    45    1
    39    82    83    2
    40    75    76    1
    41    76    77    2
    42    40    45   am
    43    40    39    1
    44    43    42    1
    45    39    42    1
    46    39    38    1
    47   126   125    1
    48    42    44    1
    49    37    36    1
    50   125   123   ar
    51   125   124   ar
    52    34    36   ar
    53    34    32   ar
    54    36    35   ar
    55    29    28    2
    56   123   121   ar
    57   124   122   ar
    58    32    31   ar
    59    35    33   ar
    60    95    93    1
    61    28    27    1
    62   121   120   ar
    63    31    33   ar
    64    31    30    1
    65    93    94    1
    66    93    90    1
    67   122   120   ar
    68    27    30    1
    69    27    26    1
    70    94    96    1
    71   120   119    1
    72   118   117    2
    73    89    90    1
    74    90    91    1
    75    25    24    1
    76   117   116    1
    77   119   116    1
    78   116   115    1
    79    24    22   ar
    80    24    23   ar
    81    91    92    2
    82    91    97   am
    83   104   103    2
    84    22    20   ar
    85    17    16    2
    86    23    21   ar
    87    97    98    1
    88   103   105   am
    89   103   102    1
    90    20    19   ar
    91    16    15    1
    92    21    19   ar
    93    11    10    2
    94    19    18    1
    95    98   101    1
    96    98    99    1
    97   101   102    1
    98    15    18    1
    99    15    14    1
   100   109   108    2
   101   106    99   am
   102   106   107    1
   103    10    14   am
   104    10     9    1
   105   108   107    1
   106    99   100    2
   107   110   111    1
   108   110   107    1
   109   111   112    1
   110     9    12    1
   111     9     8    1
   112    12    13    1
   113   112   114   ar
   114   112   113   ar
   115     4     3    2
   116     7     5    1
   117     3     2    1
   118     2     5    1
   119     2     1    1
   120     5     6    1
