@<TRIPOS>MOLECULE
tmp/2perA00.pdb
 90 85 0 0 0
SMALL
GASTEIGER

@<TRIPOS>ATOM
      1  N         11.6220   21.1920   20.1770 N.3    22  PHE22      -0.1241
      2  CA        12.0440   21.7230   21.4990 C.3    22  PHE22       0.1605
      3  C         13.3860   22.4800   21.4500 C.2    22  PHE22       0.2264
      4  O         13.6090   23.4320   22.2090 O.2    22  PHE22      -0.2867
      5  CB        12.0900   20.6380   22.5890 C.3    22  PHE22       0.0534
      6  CG        10.7790   20.4420   23.3360 C.ar   22  PHE22      -0.0203
      7  CD1        9.5400   20.6860   22.7090 C.ar   22  PHE22      -0.0042
      8  CD2       10.7810   20.0050   24.6640 C.ar   22  PHE22      -0.0042
      9  CE1        8.3340   20.5070   23.3920 C.ar   22  PHE22      -0.0003
     10  CE2        9.5850   19.7950   25.3490 C.ar   22  PHE22      -0.0003
     11  CZ         8.3530   20.0550   24.7160 C.ar   22  PHE22      -0.0000
     12  N         12.4760   25.8170   20.2650 N.3    25  ARG25      -0.1245
     13  CA        11.7680   26.5100   21.3790 C.3    25  ARG25       0.1563
     14  C         12.7920   27.1580   22.3090 C.2    25  ARG25       0.2260
     15  O         12.6550   28.3210   22.7110 O.2    25  ARG25      -0.2867
     16  CB        10.9780   25.4640   22.1510 C.3    25  ARG25       0.0307
     17  CG        10.1370   25.9190   23.3600 C.3    25  ARG25       0.0489
     18  CD         9.4550   24.6860   23.9220 C.3    25  ARG25       0.2205
     19  NE         8.8030   24.9990   25.1810 N.pl3  25  ARG25      -0.0865
     20  CZ         7.9870   24.1860   25.8400 C.cat  25  ARG25       0.5346
     21  NH1        7.6950   22.9860   25.3540 N.pl3  25  ARG25       0.1354
     22  NH2        7.4740   24.5830   27.0040 N.pl3  25  ARG25       0.1354
     23  N         -1.1070   28.9220   26.4830 N.3    86  PHE86      -0.1227
     24  CA        -0.3960   27.6470   26.4960 C.3    86  PHE86       0.1736
     25  C         -1.3270   26.5240   26.0590 C.2    86  PHE86       0.2595
     26  O         -1.0170   25.7790   25.1100 O.2    86  PHE86      -0.2718
     27  CB         0.0750   27.2980   27.9120 C.3    86  PHE86       0.0547
     28  CG         1.3880   27.9360   28.3300 C.ar   86  PHE86      -0.0202
     29  CD1        2.4940   27.9480   27.4720 C.ar   86  PHE86      -0.0042
     30  CD2        1.5340   28.4490   29.6170 C.ar   86  PHE86      -0.0042
     31  CE1        3.7000   28.5230   27.8840 C.ar   86  PHE86      -0.0003
     32  CE2        2.7300   29.0120   30.0390 C.ar   86  PHE86      -0.0003
     33  CZ         3.8290   29.0430   29.1610 C.ar   86  PHE86      -0.0000
     34  N         -2.4770   26.4360   26.7560 N.am   87  ASP87      -0.1974
     35  CA        -3.4060   25.3360   26.6480 C.3    87  ASP87       0.1709
     36  C         -4.0300   25.1580   25.2580 C.2    87  ASP87       0.2293
     37  O         -4.3360   24.0350   24.9090 O.2    87  ASP87      -0.2864
     38  CB        -4.5120   25.4580   27.7100 C.3    87  ASP87       0.1436
     39  CG        -3.9720   25.4480   29.1220 C.2    87  ASP87       0.3671
     40  OD1       -2.7650   25.1280   29.2910 O.co2  87  ASP87      -0.2456
     41  OD2       -4.7600   25.7680   30.0500 O.co2  87  ASP87      -0.2456
     42  N         -2.9430   25.0330   22.1080 N.3    89  GLY89      -0.1210
     43  CA        -2.3400   24.1640   21.0790 C.3    89  GLY89       0.1956
     44  C         -2.1330   22.7070   21.4870 C.2    89  GLY89       0.2612
     45  O         -1.5550   21.9500   20.7360 O.2    89  GLY89      -0.2717
     46  N         -2.6600   22.3230   22.6500 N.am   90  CYS90      -0.1970
     47  CA        -2.4320   21.0140   23.3150 C.3    90  CYS90       0.1712
     48  C         -2.6070   19.7140   22.5420 C.2    90  CYS90       0.2296
     49  O         -1.8760   18.7370   22.7780 O.2    90  CYS90      -0.2864
     50  CB        -3.2590   20.9200   24.6090 C.3    90  CYS90       0.0983
     51  SG        -2.3700   21.6930   25.9950 S.3    90  CYS90      -0.0798
     52  N         -0.4530   19.0040   17.6790 N.3    93  PHE93      -0.1241
     53  CA         0.6240   18.1630   17.1630 C.3    93  PHE93       0.1605
     54  C          0.3100   16.6670   17.1300 C.2    93  PHE93       0.2264
     55  O          0.6890   15.9810   16.1990 O.2    93  PHE93      -0.2867
     56  CB         1.9530   18.4310   17.8760 C.3    93  PHE93       0.0534
     57  CG         3.1670   18.0270   17.0560 C.ar   93  PHE93      -0.0203
     58  CD1        3.6250   18.8540   16.0480 C.ar   93  PHE93      -0.0042
     59  CD2        3.8340   16.8370   17.3130 C.ar   93  PHE93      -0.0042
     60  CE1        4.7690   18.4940   15.2640 C.ar   93  PHE93      -0.0003
     61  CE2        4.9880   16.4540   16.5640 C.ar   93  PHE93      -0.0003
     62  CZ         5.4350   17.3220   15.5210 C.ar   93  PHE93      -0.0000
     63  N          4.5130   30.7990   25.2200 N.3   158  ALA158     -0.1245
     64  CA         3.4680   30.0860   24.4640 C.3   158  ALA158      0.1562
     65  C          3.8580   29.9670   23.0270 C.2   158  ALA158      0.2260
     66  O          3.7420   28.8950   22.4410 O.2   158  ALA158     -0.2867
     67  CB         2.0850   30.7700   24.6160 C.3   158  ALA158      0.0290
     68  N          6.8080   27.6570   22.2070 N.3   161  SER161     -0.1202
     69  CA         6.4020   26.2400   22.1850 C.3   161  SER161      0.2020
     70  C          5.6240   25.9200   20.9100 C.2   161  SER161      0.2618
     71  O          5.9170   24.9610   20.1930 O.2   161  SER161     -0.2717
     72  CB         5.5410   25.8950   23.4480 C.3   161  SER161      0.2103
     73  OG         4.9670   24.5860   23.3030 O.3   161  SER161     -0.2182
     74  N          4.6250   26.7410   20.6160 N.am  162  LEU162     -0.1979
     75  CA         3.6810   26.4290   19.5000 C.3   162  LEU162      0.1596
     76  C          4.2710   26.6500   18.1250 C.2   162  LEU162      0.2287
     77  O          4.0990   25.8260   17.2460 O.2   162  LEU162     -0.2864
     78  CB         2.3510   27.1850   19.6180 C.3   162  LEU162      0.0297
     79  CG         1.2310   26.7980   18.5920 C.3   162  LEU162      0.0022
     80  CD1        0.9020   25.3530   18.5510 C.3   162  LEU162      0.0001
     81  CD2       -0.0640   27.6320   18.7950 C.3   162  LEU162      0.0001
     82  N          6.2160   23.8030   16.2800 N.3   165  LYS165     -0.1245
     83  CA         5.2820   22.7280   15.9050 C.3   165  LYS165      0.1561
     84  C          4.3450   23.0860   14.7480 C.2   165  LYS165      0.2260
     85  O          4.1580   22.3040   13.8300 O.2   165  LYS165     -0.2867
     86  CB         4.6000   22.1910   17.1650 C.3   165  LYS165      0.0271
     87  CG         5.7140   21.4940   18.0780 C.3   165  LYS165      0.0035
     88  CD         5.1780   20.6120   19.1900 C.3   165  LYS165      0.0206
     89  CE         6.3440   19.7520   19.7860 C.3   165  LYS165      0.1093
     90  NZ         5.9590   18.9050   20.9870 N.3   165  LYS165     -0.1314
@<TRIPOS>BOND
     1    85    84    2
     2    84    83    1
     3    60    62   ar
     4    60    58   ar
     5    62    61   ar
     6    83    82    1
     7    83    86    1
     8    58    57   ar
     9    55    54    2
    10    61    59   ar
    11    57    59   ar
    12    57    56    1
    13    54    53    1
    14    53    52    1
    15    53    56    1
    16    86    87    1
    17    77    76    2
    18    87    88    1
    19    76    75    1
    20    80    79    1
    21    79    81    1
    22    79    78    1
    23    88    89    1
    24    75    78    1
    25    75    74    1
    26    89    90    1
    27     1     2    1
    28    71    70    2
    29    12    13    1
    30    74    70   am
    31    45    44    2
    32    70    69    1
    33    43    44    1
    34    43    42    1
    35    13    16    1
    36    13    14    1
    37     3     2    1
    38     3     4    2
    39    44    46   am
    40     2     5    1
    41    16    17    1
    42    69    68    1
    43    69    72    1
    44    14    15    2
    45    66    65    2
    46    48    49    2
    47    48    47    1
    48     5     6    1
    49    46    47    1
    50     7     6   ar
    51     7     9   ar
    52    65    64    1
    53    73    72    1
    54    47    50    1
    55     6     8   ar
    56    17    18    1
    57     9    11   ar
    58    18    19    1
    59    64    67    1
    60    64    63    1
    61    50    51    1
    62     8    10   ar
    63    11    10   ar
    64    37    36    2
    65    26    25    2
    66    19    20    2
    67    36    35    1
    68    21    20    1
    69    20    22    1
    70    25    24    1
    71    25    34   am
    72    23    24    1
    73    24    27    1
    74    35    34    1
    75    35    38    1
    76    29    31   ar
    77    29    28   ar
    78    38    39    1
    79    31    33   ar
    80    27    28    1
    81    28    30   ar
    82    39    40   ar
    83    39    41   ar
    84    33    32   ar
    85    30    32   ar
