@<TRIPOS>MOLECULE
tmp/2pevA02.pdb
 127 131 0 0 0
SMALL
GASTEIGER

@<TRIPOS>ATOM
      1  N         15.2700   -8.6790   25.4560 N.3    21  TRP21      -0.1241
      2  CA        15.7270   -9.4040   24.2730 C.3    21  TRP21       0.1605
      3  C         16.8150  -10.3960   24.7010 C.2    21  TRP21       0.2264
      4  O         17.7760   -9.9920   25.3700 O.2    21  TRP21      -0.2867
      5  CB        16.2740   -8.4260   23.2270 C.3    21  TRP21       0.0550
      6  CG        16.8740   -9.0900   22.0390 C.ar   21  TRP21       0.0003
      7  CD1       16.4820  -10.2340   21.3860 C.ar   21  TRP21       0.0946
      8  CD2       18.0800   -8.6550   21.3660 C.ar   21  TRP21       0.0152
      9  NE1       17.3540  -10.5320   20.3710 N.ar   21  TRP21      -0.2442
     10  CE2       18.3390   -9.5720   20.3340 C.ar   21  TRP21       0.0810
     11  CE3       18.9410   -7.5640   21.5430 C.ar   21  TRP21       0.0012
     12  CZ2       19.4360   -9.4450   19.4900 C.ar   21  TRP21       0.0191
     13  CZ3       20.0360   -7.4290   20.7020 C.ar   21  TRP21       0.0001
     14  CH2       20.2620   -8.3750   19.6900 C.ar   21  TRP21       0.0015
     15  N          8.6920   -9.9720   18.8440 N.3    48  VAL48      -0.1231
     16  CA         9.7350  -10.7050   18.1310 C.3    48  VAL48       0.1692
     17  C         10.6780  -11.4050   19.1060 C.2    48  VAL48       0.2592
     18  O         11.4130  -12.3150   18.7190 O.2    48  VAL48      -0.2718
     19  CB        10.4720   -9.7720   17.1560 C.3    48  VAL48       0.0266
     20  CG1       11.4430   -8.8580   17.8720 C.3    48  VAL48       0.0020
     21  CG2       11.1710  -10.5410   16.0380 C.3    48  VAL48       0.0020
     22  N         10.7210  -10.9780   20.3800 N.am   49  TYR49      -0.1976
     23  CA        11.6180  -11.6170   21.3470 C.3    49  TYR49       0.1639
     24  C         11.1360  -13.0000   21.7560 C.2    49  TYR49       0.2290
     25  O         11.9280  -13.7530   22.3570 O.2    49  TYR49      -0.2864
     26  CB        11.8050  -10.7350   22.6030 C.3    49  TYR49       0.0560
     27  CG        12.3650   -9.3670   22.3310 C.ar   49  TYR49      -0.0198
     28  CD1       12.9590   -9.0160   21.1340 C.ar   49  TYR49      -0.0009
     29  CD2       12.2860   -8.3790   23.3190 C.ar   49  TYR49      -0.0009
     30  CE1       13.4350   -7.7440   20.9020 C.ar   49  TYR49       0.0417
     31  CE2       12.7440   -7.0950   23.1020 C.ar   49  TYR49       0.0417
     32  CZ        13.3170   -6.7650   21.8840 C.ar   49  TYR49       0.1957
     33  OH        13.7480   -5.4700   21.6730 O.3    49  TYR49      -0.2866
     34  N          6.0680   -5.7170   15.3590 N.3    80  TRP80      -0.1241
     35  CA         7.0990   -6.2880   14.4990 C.3    80  TRP80       0.1605
     36  C          6.8340   -5.9170   13.0430 C.2    80  TRP80       0.2264
     37  O          5.7350   -5.5200   12.6130 O.2    80  TRP80      -0.2867
     38  CB         7.2600   -7.8180   14.7650 C.3    80  TRP80       0.0550
     39  CG         8.4170   -8.3240   13.9560 C.ar   80  TRP80       0.0003
     40  CD1        8.3940   -9.1730   12.8890 C.ar   80  TRP80       0.0946
     41  CD2        9.7840   -7.8780   14.0520 C.ar   80  TRP80       0.0152
     42  NE1        9.6190   -9.2900   12.3140 N.ar   80  TRP80      -0.2442
     43  CE2       10.4970   -8.5040   13.0190 C.ar   80  TRP80       0.0810
     44  CE3       10.4710   -7.0180   14.9180 C.ar   80  TRP80       0.0012
     45  CZ2       11.8700   -8.2900   12.8260 C.ar   80  TRP80       0.0191
     46  CZ3       11.8090   -6.8020   14.7390 C.ar   80  TRP80       0.0001
     47  CH2       12.5120   -7.4410   13.6930 C.ar   80  TRP80       0.0015
     48  N          8.6550   -1.1190   15.7590 N.3   111  HIS111     -0.1226
     49  CA         9.9620   -1.6460   16.1520 C.3   111  HIS111      0.1752
     50  C         11.0870   -1.1930   15.1980 C.2   111  HIS111      0.2596
     51  O         12.1910   -0.8780   15.6540 O.2   111  HIS111     -0.2718
     52  CB         9.8580   -3.1760   16.2300 C.3   111  HIS111      0.0759
     53  CG        10.8970   -3.8560   17.0720 C.ar  111  HIS111      0.0818
     54  ND1       10.5760   -5.0290   17.7290 N.ar  111  HIS111     -0.2268
     55  CD2       12.1990   -3.5530   17.3070 C.ar  111  HIS111      0.1154
     56  CE1       11.7040   -5.3880   18.3420 C.ar  111  HIS111      0.1986
     57  NE2       12.6780   -4.5240   18.1200 N.ar  111  HIS111     -0.2212
     58  N         10.7960   -1.2150   13.9000 N.am  112  TRP112     -0.1976
     59  CA        11.6990   -0.7110   12.8670 C.3   112  TRP112      0.1640
     60  C         10.8660    0.0080   11.8380 C.2   112  TRP112      0.2290
     61  O          9.6860   -0.3130   11.6290 O.2   112  TRP112     -0.2864
     62  CB        12.4600   -1.8550   12.1470 C.3   112  TRP112      0.0576
     63  CG        13.4410   -2.5460   13.0220 C.ar  112  TRP112      0.0006
     64  CD1       13.1730   -3.5450   13.9180 C.ar  112  TRP112      0.0946
     65  CD2       14.8410   -2.2740   13.1380 C.ar  112  TRP112      0.0152
     66  NE1       14.3200   -3.8990   14.5780 N.ar  112  TRP112     -0.2442
     67  CE2       15.3560   -3.1220   14.1270 C.ar  112  TRP112      0.0810
     68  CE3       15.6930   -1.3960   12.4790 C.ar  112  TRP112      0.0012
     69  CZ2       16.6920   -3.0690   14.4800 C.ar  112  TRP112      0.0191
     70  CZ3       17.0220   -1.3540   12.8450 C.ar  112  TRP112      0.0001
     71  CH2       17.5160   -2.1870   13.8400 C.ar  112  TRP112      0.0015
     72  N         11.3610  -12.8400    9.4090 N.3   123  PHE123     -0.1241
     73  CA        12.2280  -12.2970    8.3850 C.3   123  PHE123      0.1605
     74  C         11.9740  -13.0630    7.0920 C.2   123  PHE123      0.2264
     75  O         12.7310  -13.9640    6.7300 O.2   123  PHE123     -0.2867
     76  CB        13.7160  -12.3900    8.7650 C.3   123  PHE123      0.0534
     77  CG        14.1200  -11.3970    9.8490 C.ar  123  PHE123     -0.0203
     78  CD1       13.9570  -11.6680   11.1770 C.ar  123  PHE123     -0.0042
     79  CD2       14.6830  -10.1880    9.4970 C.ar  123  PHE123     -0.0042
     80  CE1       14.3520  -10.7900   12.1620 C.ar  123  PHE123     -0.0003
     81  CE2       15.0450   -9.2970   10.5100 C.ar  123  PHE123     -0.0003
     82  CZ        14.9260   -9.5990   11.7970 C.ar  123  PHE123     -0.0000
     83  N         18.9250    1.8130   23.8690 N.3   210  TYR210     -0.1241
     84  CA        19.0190    0.3710   23.9260 C.3   210  TYR210      0.1605
     85  C         20.4850   -0.0640   23.7630 C.2   210  TYR210      0.2264
     86  O         21.3600    0.6800   23.3580 O.2   210  TYR210     -0.2867
     87  CB        18.0660   -0.3110   22.9590 C.3   210  TYR210      0.0534
     88  CG        18.3410   -0.3530   21.4970 C.ar  210  TYR210     -0.0201
     89  CD1       19.4250   -1.0580   20.9460 C.ar  210  TYR210     -0.0009
     90  CD2       17.4350    0.1890   20.5700 C.ar  210  TYR210     -0.0009
     91  CE1       19.5850   -1.1890   19.6040 C.ar  210  TYR210      0.0417
     92  CE2       17.5630    0.0080   19.2180 C.ar  210  TYR210      0.0417
     93  CZ        18.6470   -0.6980   18.7130 C.ar  210  TYR210      0.1957
     94  OH        18.7980   -0.9760   17.3940 O.3   210  TYR210     -0.2866
     95  N         25.7340  -12.3610   17.1960 N.3   220  TRP220     -0.1241
     96  CA        26.7770  -12.1430   16.1760 C.3   220  TRP220      0.1605
     97  C         28.0250  -11.5290   16.7650 C.2   220  TRP220      0.2264
     98  O         28.8640  -11.0960   15.9600 O.2   220  TRP220     -0.2867
     99  CB        26.1970  -11.3220   15.0290 C.3   220  TRP220      0.0550
    100  CG        25.5590  -10.0410   15.4800 C.ar  220  TRP220      0.0003
    101  CD1       26.1170   -8.8470   15.7430 C.ar  220  TRP220      0.0946
    102  CD2       24.1600   -9.8820   15.7270 C.ar  220  TRP220      0.0152
    103  NE1       25.1840   -7.9480   16.1610 N.ar  220  TRP220     -0.2442
    104  CE2       23.9570   -8.5390   16.1420 C.ar  220  TRP220      0.0810
    105  CE3       23.0540  -10.7350   15.6200 C.ar  220  TRP220      0.0012
    106  CZ2       22.6920   -8.0460   16.4610 C.ar  220  TRP220      0.0191
    107  CZ3       21.8130  -10.2560   15.9260 C.ar  220  TRP220      0.0001
    108  CH2       21.6360   -8.9190   16.3400 C.ar  220  TRP220      0.0015
    109  N         23.1670   -3.3200   16.5680 N.3   299  CYS299     -0.1221
    110  CA        21.9990   -3.7090   15.8340 C.3   299  CYS299      0.1808
    111  C         21.9640   -3.1020   14.4410 C.2   299  CYS299      0.2601
    112  O         21.6610   -1.9230   14.2940 O.2   299  CYS299     -0.2717
    113  CB        20.7150   -3.3050   16.5790 C.3   299  CYS299      0.0970
    114  SG        20.3070   -4.5000   17.8640 S.3   299  CYS299     -0.0800
    115  N         22.2070   -4.0030   13.5020 N.am  300  ALA300     -0.1965
    116  CA        22.1930   -3.8250   12.0580 C.3   300  ALA300      0.1728
    117  C         21.9640   -5.1910   11.4580 C.2   300  ALA300      0.2616
    118  O         22.1870   -6.2090   12.1420 O.2   300  ALA300     -0.2715
    119  CB        23.4890   -3.2080   11.5500 C.3   300  ALA300      0.0334
    120  N         21.5600   -5.2440   10.2030 N.am  301  LEU301     -0.1977
    121  CA        21.2260   -6.5320    9.6290 C.3   301  LEU301      0.1596
    122  C         21.3310   -6.5050    8.0980 C.2   301  LEU301      0.2287
    123  O         20.5090   -5.8780    7.4240 O.2   301  LEU301     -0.2864
    124  CB        19.8190   -6.9920   10.0470 C.3   301  LEU301      0.0297
    125  CG        19.4630   -8.3710    9.5590 C.3   301  LEU301      0.0022
    126  CD1       20.3820   -9.4580   10.0890 C.3   301  LEU301      0.0001
    127  CD2       18.1140   -8.7340   10.0270 C.3   301  LEU301      0.0001
@<TRIPOS>BOND
     1    75    74    2
     2    74    73    1
     3   123   122    2
     4   122   121    1
     5    73    76    1
     6    73    72    1
     7    76    77    1
     8    79    77   ar
     9    79    81   ar
    10   125   127    1
    11   125   124    1
    12   125   126    1
    13   121   124    1
    14   121   120    1
    15    77    78   ar
    16   120   117   am
    17    81    82   ar
    18    78    80   ar
    19   117   116    1
    20   117   118    2
    21   119   116    1
    22    61    60    2
    23    82    80   ar
    24    60    59    1
    25   116   115    1
    26    62    59    1
    27    62    63    1
    28    42    40   ar
    29    42    43   ar
    30    68    70   ar
    31    68    65   ar
    32    37    36    2
    33    45    43   ar
    34    45    47   ar
    35    70    71   ar
    36    59    58    1
    37    40    39   ar
    38    43    41   ar
    39    63    65   ar
    40    63    64   ar
    41    36    35    1
    42    65    67   ar
    43   115   111   am
    44    47    46   ar
    45    71    69   ar
    46    58    50   am
    47    64    66   ar
    48    39    41   ar
    49    39    38    1
    50    41    44   ar
    51    67    69   ar
    52    67    66   ar
    53   112   111    2
    54   111   110    1
    55    35    38    1
    56    35    34    1
    57    46    44   ar
    58    99   100    1
    59    99    96    1
    60    50    51    2
    61    50    49    1
    62   100   102   ar
    63   100   101   ar
    64   105   102   ar
    65   105   107   ar
    66   102   104   ar
    67   101   103   ar
    68    48    49    1
    69   110   109    1
    70   110   113    1
    71   107   108   ar
    72    98    97    2
    73    21    19    1
    74   104   103   ar
    75   104   106   ar
    76    49    52    1
    77    96    97    1
    78    96    95    1
    79    52    53    1
    80   108   106   ar
    81   113   114    1
    82    53    55   ar
    83    53    54   ar
    84    19    20    1
    85    19    16    1
    86    55    57   ar
    87    94    93    1
    88    54    56   ar
    89    57    56   ar
    90    16    15    1
    91    16    17    1
    92    93    92   ar
    93    93    91   ar
    94    18    17    2
    95    17    22   am
    96    92    90   ar
    97    12    14   ar
    98    12    10   ar
    99    91    89   ar
   100    14    13   ar
   101    10     9   ar
   102    10     8   ar
   103     9     7   ar
   104    22    23    1
   105    90    88   ar
   106    13    11   ar
   107    30    28   ar
   108    30    32   ar
   109    89    88   ar
   110    28    27   ar
   111    23    24    1
   112    23    26    1
   113     8    11   ar
   114     8     6   ar
   115     7     6   ar
   116    88    87    1
   117    33    32    1
   118    24    25    2
   119    32    31   ar
   120     6     5    1
   121    27    26    1
   122    27    29   ar
   123    87    84    1
   124    31    29   ar
   125     5     2    1
   126    86    85    2
   127    85    84    1
   128    83    84    1
   129     2     3    1
   130     2     1    1
   131     3     4    2
