@<TRIPOS>MOLECULE
tmp/2peyB00.pdb
 101 95 0 0 0
SMALL
GASTEIGER

@<TRIPOS>ATOM
      1  N         18.2010   -3.1370  -22.6190 N.3    11  SER11      -0.1202
      2  CA        18.5320   -1.7320  -22.5230 C.3    11  SER11       0.2020
      3  C         17.9250   -0.9810  -23.6960 C.2    11  SER11       0.2619
      4  O         18.1300   -1.3730  -24.8480 O.2    11  SER11      -0.2717
      5  CB        20.0640   -1.6100  -22.5720 C.3    11  SER11       0.2103
      6  OG        20.4310   -0.2980  -22.2520 O.3    11  SER11      -0.2182
      7  N         17.1850    0.0910  -23.4220 N.am   12  GLY12      -0.1942
      8  CA        16.4990    0.8330  -24.4820 C.3    12  GLY12       0.2014
      9  C         15.1580    0.2400  -24.9070 C.2    12  GLY12       0.2639
     10  O         14.5160    0.7420  -25.8290 O.2    12  GLY12      -0.2714
     11  N         14.7150   -0.8270  -24.2360 N.am   13  ALA13      -0.1963
     12  CA        13.4360   -1.4570  -24.5780 C.3    13  ALA13       0.1728
     13  C         12.2530   -0.6170  -24.1390 C.2    13  ALA13       0.2617
     14  O         11.1970   -0.6660  -24.7730 O.2    13  ALA13      -0.2715
     15  CB        13.3320   -2.8790  -24.0150 C.3    13  ALA13       0.0334
     16  N         12.4130    0.1680  -23.0660 N.am   14  GLY14      -0.1940
     17  CA        11.3300    1.0660  -22.6550 C.3    14  GLY14       0.2014
     18  C         10.9010    1.0490  -21.1910 C.2    14  GLY14       0.2639
     19  O          9.8480    1.5970  -20.8610 O.2    14  GLY14      -0.2714
     20  N         11.7070    0.4250  -20.3290 N.am   15  LYS15      -0.1963
     21  CA        11.3770    0.2690  -18.8970 C.3    15  LYS15       0.1728
     22  C         11.2880    1.6070  -18.1560 C.2    15  LYS15       0.2617
     23  O         10.2750    1.8860  -17.5100 O.2    15  LYS15      -0.2715
     24  CB        12.3770   -0.6690  -18.1960 C.3    15  LYS15       0.0311
     25  CG        12.4380   -2.1090  -18.7410 C.3    15  LYS15       0.0038
     26  CD        13.6030   -2.8960  -18.1470 C.3    15  LYS15       0.0206
     27  CE        14.9130   -2.1640  -18.3630 C.3    15  LYS15       0.1093
     28  NZ        15.3650   -2.1240  -19.7920 N.3    15  LYS15      -0.1314
     29  N         12.3240    2.4490  -18.2640 N.am   16  THR16      -0.1937
     30  CA        12.2760    3.8060  -17.6760 C.3    16  THR16       0.2028
     31  C         11.0400    4.5800  -18.1390 C.2    16  THR16       0.2643
     32  O         10.2770    5.1120  -17.3200 O.2    16  THR16      -0.2714
     33  CB        13.5830    4.5920  -17.9590 C.3    16  THR16       0.1808
     34  OG1       14.6970    3.7920  -17.5510 O.3    16  THR16      -0.2208
     35  CG2       13.6160    5.9110  -17.2170 C.3    16  THR16       0.0379
     36  N         10.7970    4.5780  -19.4480 N.am   17  THR17      -0.1936
     37  CA         9.6720    5.2980  -20.0140 C.3    17  THR17       0.2028
     38  C          8.3080    4.7800  -19.5700 C.2    17  THR17       0.2642
     39  O          7.4260    5.5710  -19.1910 O.2    17  THR17      -0.2714
     40  CB         9.7530    5.3210  -21.5510 C.3    17  THR17       0.1808
     41  OG1       11.0130    5.8760  -21.9270 O.3    17  THR17      -0.2208
     42  CG2        8.6690    6.1760  -22.1280 C.3    17  THR17       0.0379
     43  N          8.1180    3.4660  -19.6180 N.am   18  VAL18      -0.1977
     44  CA         6.8700    2.8800  -19.1440 C.3    18  VAL18       0.1596
     45  C          6.6650    3.1510  -17.6410 C.2    18  VAL18       0.2287
     46  O          5.5790    3.5490  -17.2170 O.2    18  VAL18      -0.2864
     47  CB         6.7790    1.3550  -19.4490 C.3    18  VAL18       0.0276
     48  CG1        5.5000    0.7410  -18.8060 C.3    18  VAL18       0.0022
     49  CG2        6.7990    1.1170  -20.9670 C.3    18  VAL18       0.0022
     50  N         17.4890    3.0560  -30.8170 N.3   118  ARG118     -0.1245
     51  CA        17.0150    3.9830  -29.8050 C.3   118  ARG118      0.1563
     52  C         18.1830    4.7350  -29.1680 C.2   118  ARG118      0.2260
     53  O         18.2270    5.9660  -29.2340 O.2   118  ARG118     -0.2867
     54  CB        16.1510    3.2610  -28.7700 C.3   118  ARG118      0.0307
     55  CG        14.7170    3.1520  -29.2220 C.3   118  ARG118      0.0489
     56  CD        13.8860    2.1910  -28.4140 C.3   118  ARG118      0.2205
     57  NE        12.5440    2.1370  -28.9800 N.pl3 118  ARG118     -0.0865
     58  CZ        11.5090    1.4520  -28.4900 C.cat 118  ARG118      0.5346
     59  NH1       11.6140    0.7340  -27.3760 N.pl3 118  ARG118      0.1354
     60  NH2       10.3430    1.4930  -29.1270 N.pl3 118  ARG118      0.1354
     61  N         19.4670    5.4770  -25.9600 N.3   120  VAL120     -0.1245
     62  CA        19.1710    6.4730  -24.9170 C.3   120  VAL120      0.1561
     63  C         20.3230    6.6230  -23.9080 C.2   120  VAL120      0.2260
     64  O         21.4860    6.8080  -24.2820 O.2   120  VAL120     -0.2867
     65  CB        17.8450    6.1280  -24.1500 C.3   120  VAL120      0.0252
     66  CG1       16.6290    6.2490  -25.0770 C.3   120  VAL120      0.0019
     67  CG2       17.9160    4.7280  -23.5110 C.3   120  VAL120      0.0019
     68  N          6.8490   -2.8850  -27.2190 N.3   134  THR134     -0.1218
     69  CA         7.0250   -1.4320  -27.2190 C.3   134  THR134      0.1862
     70  C          7.4020   -0.8870  -28.5970 C.2   134  THR134      0.2287
     71  O          7.4140    0.3320  -28.7890 O.2   134  THR134     -0.2866
     72  CB         8.0450   -0.9700  -26.1910 C.3   134  THR134      0.1770
     73  OG1        9.2970   -1.6110  -26.4590 O.3   134  THR134     -0.2211
     74  CG2        7.5600   -1.2820  -24.7480 C.3   134  THR134      0.0375
     75  N          3.4100   -0.8230  -29.8920 N.3   137  CYS137     -0.1221
     76  CA         2.4890   -0.0520  -29.0340 C.3   137  CYS137      0.1808
     77  C          3.1390    1.2410  -28.5740 C.2   137  CYS137      0.2601
     78  O          4.3280    1.2390  -28.2520 O.2   137  CYS137     -0.2717
     79  CB         2.1260   -0.8450  -27.7700 C.3   137  CYS137      0.0970
     80  SG         1.1520   -2.2630  -28.1220 S.3   137  CYS137     -0.0800
     81  N          2.3800    2.3310  -28.5000 N.am  138  ASP138     -0.1959
     82  CA         2.9480    3.5370  -27.8900 C.3   138  ASP138      0.1840
     83  C          2.8970    3.4590  -26.3490 C.2   138  ASP138      0.2621
     84  O          2.2720    2.5520  -25.7810 O.2   138  ASP138     -0.2715
     85  CB         2.3540    4.8430  -28.4510 C.3   138  ASP138      0.1450
     86  CG         0.8870    5.0240  -28.1190 C.2   138  ASP138      0.3671
     87  OD1        0.3870    4.3970  -27.1700 O.co2 138  ASP138     -0.2456
     88  OD2        0.2280    5.8310  -28.8080 O.co2 138  ASP138     -0.2456
     89  N          3.5850    4.3900  -25.6990 N.am  139  VAL139     -0.1977
     90  CA         3.6880    4.4210  -24.2450 C.3   139  VAL139      0.1596
     91  C          2.3310    4.3810  -23.5400 C.2   139  VAL139      0.2287
     92  O          2.1520    3.6070  -22.6000 O.2   139  VAL139     -0.2864
     93  CB         4.4740    5.6430  -23.7780 C.3   139  VAL139      0.0276
     94  CG1        4.4580    5.7330  -22.2660 C.3   139  VAL139      0.0022
     95  CG2        5.8950    5.5470  -24.2850 C.3   139  VAL139      0.0022
     96  N          0.7510    1.0150  -23.7180 N.3   142  CYS142     -0.1235
     97  CA         1.4330    0.0970  -22.8110 C.3   142  CYS142      0.1677
     98  C          0.9650    0.3130  -21.3700 C.2   142  CYS142      0.2270
     99  O          0.7100   -0.6550  -20.6450 O.2   142  CYS142     -0.2867
    100  CB         2.9590    0.2490  -22.9170 C.3   142  CYS142      0.0956
    101  SG         3.6950   -0.3770  -24.4540 S.3   142  CYS142     -0.0801
@<TRIPOS>BOND
     1    50    51    1
     2    75    76    1
     3    51    52    1
     4    51    54    1
     5    53    52    2
     6    55    54    1
     7    55    56    1
     8    60    58    1
     9    76    77    1
    10    76    79    1
    11    57    58    2
    12    57    56    1
    13    88    86   ar
    14    71    70    2
    15    70    69    1
    16    77    81   am
    17    77    78    2
    18    81    82    1
    19    58    59    1
    20    85    86    1
    21    85    82    1
    22    80    79    1
    23    86    87   ar
    24    82    83    1
    25    69    68    1
    26    69    72    1
    27    73    72    1
    28    83    84    2
    29    83    89   am
    30    72    74    1
    31    61    62    1
    32    10     9    2
    33    89    90    1
    34    66    65    1
    35    62    65    1
    36    62    63    1
    37     9     8    1
    38     9    11   am
    39     4     3    2
    40    14    13    2
    41    12    11    1
    42    12    13    1
    43    12    15    1
    44     8     7    1
    45   101   100    1
    46    95    93    1
    47    64    63    2
    48    90    93    1
    49    90    91    1
    50    65    67    1
    51    13    16   am
    52    93    94    1
    53    96    97    1
    54     3     7   am
    55     3     2    1
    56    91    92    2
    57    16    17    1
    58   100    97    1
    59    97    98    1
    60    17    18    1
    61     1     2    1
    62     5     2    1
    63     5     6    1
    64    42    40    1
    65    41    40    1
    66    40    37    1
    67    98    99    2
    68    18    19    2
    69    18    20   am
    70    49    47    1
    71    20    21    1
    72    37    38    1
    73    37    36    1
    74    28    27    1
    75    43    38   am
    76    43    44    1
    77    38    39    2
    78    47    44    1
    79    47    48    1
    80    36    31   am
    81    44    45    1
    82    21    24    1
    83    21    22    1
    84    25    24    1
    85    25    26    1
    86    27    26    1
    87    29    22   am
    88    29    30    1
    89    22    23    2
    90    31    30    1
    91    31    32    2
    92    33    30    1
    93    33    34    1
    94    33    35    1
    95    45    46    2
