@<TRIPOS>MOLECULE
tmp/2pezA00.pdb
 165 158 0 0 0
SMALL
GASTEIGER

@<TRIPOS>ATOM
      1  N         16.9040   -3.7900   24.2860 N.3    11  SER11      -0.1202
      2  CA        15.8390   -4.8050   24.1970 C.3    11  SER11       0.2020
      3  C         14.8690   -4.6230   25.3600 C.2    11  SER11       0.2619
      4  O         15.2980   -4.5210   26.5150 O.2    11  SER11      -0.2717
      5  CB        16.4610   -6.2350   24.2480 C.3    11  SER11       0.2103
      6  OG        15.4620   -7.2430   24.2360 O.3    11  SER11      -0.2182
      7  N         13.5670   -4.5700   25.0770 N.am   12  GLY12      -0.1956
      8  CA        12.5460   -4.4210   26.1240 C.3    12  GLY12       0.1869
      9  C         12.2780   -2.9970   26.5850 C.2    12  GLY12       0.2309
     10  O         11.4230   -2.7790   27.4670 O.2    12  GLY12      -0.2863
     11  N         10.4000   -0.2970   22.0340 N.3    15  LYS15      -0.1245
     12  CA        10.3580    0.0910   20.6200 C.3    15  LYS15       0.1561
     13  C          9.1890   -0.5120   19.8450 C.2    15  LYS15       0.2260
     14  O          8.4660    0.1930   19.1240 O.2    15  LYS15      -0.2867
     15  CB        11.7060   -0.2580   19.9410 C.3    15  LYS15       0.0271
     16  CG        12.9340    0.4270   20.6060 C.3    15  LYS15       0.0035
     17  CD        14.2740   -0.0140   19.9420 C.3    15  LYS15       0.0206
     18  CE        14.4730   -1.5110   19.9570 C.3    15  LYS15       0.1093
     19  NZ        14.7030   -2.0160   21.3660 N.3    15  LYS15      -0.1314
     20  N         12.1430   -6.0670   13.1630 N.3    38  GLY38      -0.1225
     21  CA        12.8330   -7.3530   12.9990 C.3    38  GLY38       0.1811
     22  C         11.9720   -8.3310   12.2000 C.2    38  GLY38       0.2280
     23  O         12.4810   -9.0840   11.3650 O.2    38  GLY38      -0.2866
     24  N         14.4870   -8.6780    9.3310 N.3    42  ARG42      -0.1245
     25  CA        15.5820   -9.6130    9.6450 C.3    42  ARG42       0.1563
     26  C         15.4420  -11.0180    9.0970 C.2    42  ARG42       0.2260
     27  O         16.3990  -11.7960    9.1800 O.2    42  ARG42      -0.2867
     28  CB        15.9720   -9.5980   11.1410 C.3    42  ARG42       0.0307
     29  CG        17.0930   -8.5970   11.4070 C.3    42  ARG42       0.0489
     30  CD        17.6730   -8.8250   12.8030 C.3    42  ARG42       0.2205
     31  NE        18.8300   -7.9920   13.1090 N.pl3  42  ARG42      -0.0865
     32  CZ        20.1030   -8.3210   12.8670 C.cat  42  ARG42       0.5346
     33  NH1       20.4090   -9.4100   12.1620 N.pl3  42  ARG42       0.1354
     34  NH2       21.1000   -7.5290   13.2560 N.pl3  42  ARG42       0.1354
     35  N         24.4840  -10.9040   14.2350 N.3    51  PHE51      -0.1241
     36  CA        24.5430   -9.9140   15.3120 C.3    51  PHE51       0.1605
     37  C         25.9550   -9.5240   15.6860 C.2    51  PHE51       0.2264
     38  O         26.1770   -8.8200   16.6810 O.2    51  PHE51      -0.2867
     39  CB        23.7580  -10.4140   16.5380 C.3    51  PHE51       0.0534
     40  CG        22.2740  -10.3640   16.3320 C.ar   51  PHE51      -0.0203
     41  CD1       21.5650   -9.1970   16.6450 C.ar   51  PHE51      -0.0042
     42  CD2       21.5930  -11.4350   15.7610 C.ar   51  PHE51      -0.0042
     43  CE1       20.1660   -9.1270   16.4210 C.ar   51  PHE51      -0.0003
     44  CE2       20.1870  -11.3860   15.5520 C.ar   51  PHE51      -0.0003
     45  CZ        19.4850  -10.2120   15.8750 C.ar   51  PHE51      -0.0000
     46  N         25.6900   -5.9250   12.5000 N.3    56  ARG56      -0.1245
     47  CA        24.8200   -4.8510   12.9790 C.3    56  ARG56       0.1563
     48  C         25.0190   -3.5460   12.2330 C.2    56  ARG56       0.2260
     49  O         24.0320   -2.8460   11.9790 O.2    56  ARG56      -0.2867
     50  CB        25.0090   -4.6320   14.4600 C.3    56  ARG56       0.0307
     51  CG        24.5960   -5.8520   15.2800 C.3    56  ARG56       0.0489
     52  CD        24.5580   -5.4480   16.7310 C.3    56  ARG56       0.2205
     53  NE        24.6260   -6.5320   17.7050 N.pl3  56  ARG56      -0.0865
     54  CZ        23.7740   -6.6950   18.7260 C.cat  56  ARG56       0.5346
     55  NH1       22.6490   -5.9650   18.8370 N.pl3  56  ARG56       0.1354
     56  NH2       24.0410   -7.6520   19.6270 N.pl3  56  ARG56       0.1354
     57  N         23.2060   -4.2510    9.0140 N.3    59  ASN59      -0.1225
     58  CA        21.7870   -4.2630    9.2870 C.3    59  ASN59       0.1785
     59  C         21.2580   -2.8330    9.2620 C.2    59  ASN59       0.2597
     60  O         20.3090   -2.5360    8.5320 O.2    59  ASN59      -0.2718
     61  CB        21.5550   -4.9660   10.6460 C.3    59  ASN59       0.1169
     62  CG        20.0820   -5.0960   11.0210 C.2    59  ASN59       0.2627
     63  OD1       19.2810   -5.6680   10.2710 O.2    59  ASN59      -0.2716
     64  ND2       19.7150   -4.6060   12.2220 N.am   59  ASN59      -0.0877
     65  N         21.8620   -1.9540   10.0580 N.am   60  VAL60      -0.1980
     66  CA        21.3950   -0.5820   10.2040 C.3    60  VAL60       0.1595
     67  C         21.5940    0.1970    8.8940 C.2    60  VAL60       0.2287
     68  O         20.7020    0.9870    8.5430 O.2    60  VAL60      -0.2864
     69  CB        22.1240    0.0630   11.3880 C.3    60  VAL60       0.0276
     70  CG1       21.9890    1.5780   11.3610 C.3    60  VAL60       0.0022
     71  CG2       21.4940   -0.5140   12.6750 C.3    60  VAL60       0.0022
     72  N         12.2460    0.2590   14.0780 N.3    80  SER80      -0.1202
     73  CA        12.2470   -0.2610   15.4200 C.3    80  SER80       0.2020
     74  C         13.3630   -1.2930   15.5740 C.2    80  SER80       0.2619
     75  O         13.1140   -2.4890   15.5020 O.2    80  SER80      -0.2717
     76  CB        10.9050   -0.9270   15.6740 C.3    80  SER80       0.2103
     77  OG        10.7340   -1.2790   17.0360 O.3    80  SER80      -0.2182
     78  N         14.5730   -0.7880   15.7750 N.am   81  PHE81      -0.1961
     79  CA        15.7990   -1.5870   15.9110 C.3    81  PHE81       0.1771
     80  C         16.6620   -1.0710   17.0480 C.2    81  PHE81       0.2619
     81  O         16.6910    0.1140   17.2990 O.2    81  PHE81      -0.2715
     82  CB        16.6170   -1.6010   14.5980 C.3    81  PHE81       0.0574
     83  CG        15.8360   -2.1540   13.4550 C.ar   81  PHE81      -0.0200
     84  CD1       15.7620   -3.5310   13.2390 C.ar   81  PHE81      -0.0042
     85  CD2       15.1060   -1.3010   12.6170 C.ar   81  PHE81      -0.0042
     86  CE1       14.9930   -4.0360   12.1930 C.ar   81  PHE81      -0.0003
     87  CE2       14.3390   -1.8090   11.5780 C.ar   81  PHE81      -0.0003
     88  CZ        14.2670   -3.1690   11.3660 C.ar   81  PHE81      -0.0000
     89  N         17.3230   -1.9900   17.7570 N.am   82  ILE82      -0.1963
     90  CA        18.1870   -1.5840   18.8690 C.3    82  ILE82       0.1727
     91  C         19.1290   -0.5010   18.3850 C.2    82  ILE82       0.2617
     92  O         19.2600    0.5180   19.0660 O.2    82  ILE82      -0.2715
     93  CB        18.9770   -2.7570   19.4390 C.3    82  ILE82       0.0290
     94  CG1       17.9880   -3.7360   20.0970 C.3    82  ILE82       0.0022
     95  CG2       20.0490   -2.2710   20.4260 C.3    82  ILE82       0.0023
     96  CD1       18.6210   -4.9410   20.7070 C.3    82  ILE82       0.0001
     97  N         19.7670   -0.7090   17.2270 N.am   83  SER83      -0.1936
     98  CA        20.6950    0.2510   16.6100 C.3    83  SER83       0.2040
     99  C         21.6500    0.8340   17.6460 C.2    83  SER83       0.2485
    100  O         21.5940    2.0310   17.9780 O.2    83  SER83      -0.2729
    101  CB        19.9640    1.3290   15.8030 C.3    83  SER83       0.2129
    102  OG        18.9360    1.9640   16.5310 O.3    83  SER83      -0.2179
    103  N         22.5360   -0.0250   18.1740 N.am   84  PRO84      -0.2726
    104  CA        23.3080    0.3040   19.3750 C.3    84  PRO84       0.1402
    105  C         24.5140    1.1740   19.1180 C.2    84  PRO84       0.2269
    106  O         25.1580    1.6090   20.1030 O.2    84  PRO84      -0.2865
    107  CB        23.7520   -1.0770   19.8700 C.3    84  PRO84       0.0296
    108  CG        23.9160   -1.8780   18.5930 C.3    84  PRO84       0.0237
    109  CD        22.8270   -1.3790   17.6710 C.3    84  PRO84       0.0939
    110  N         10.9530  -11.4110   26.5820 N.3   121  LYS121     -0.1245
    111  CA        11.1440  -12.6310   25.8000 C.3   121  LYS121      0.1561
    112  C         12.0640  -13.6240   26.5110 C.2   121  LYS121      0.2260
    113  O         12.4950  -14.6150   25.9150 O.2   121  LYS121     -0.2867
    114  CB        11.6980  -12.2980   24.4090 C.3   121  LYS121      0.0271
    115  CG        10.7250  -11.5970   23.4640 C.3   121  LYS121      0.0035
    116  CD        11.1390  -11.8000   22.0100 C.3   121  LYS121      0.0206
    117  CE        10.1210  -11.1780   21.0560 C.3   121  LYS121      0.1093
    118  NZ         9.8440  -12.0300   19.8510 N.3   121  LYS121     -0.1314
    119  N         15.1090  -13.2320   27.2700 N.3   123  LEU123     -0.1245
    120  CA        16.4700  -13.1580   26.7590 C.3   123  LEU123      0.1561
    121  C         17.5270  -12.6680   27.7370 C.2   123  LEU123      0.2260
    122  O         18.6900  -13.0700   27.6700 O.2   123  LEU123     -0.2867
    123  CB        16.4780  -12.2830   25.5180 C.3   123  LEU123      0.0270
    124  CG        15.5090  -12.7680   24.4450 C.3   123  LEU123      0.0019
    125  CD1       15.4360  -11.7360   23.3400 C.3   123  LEU123      0.0001
    126  CD2       15.9210  -14.1290   23.8960 C.3   123  LEU123      0.0001
    127  N         23.0900  -17.1070   25.8380 N.3   132  ILE132     -0.1231
    128  CA        23.1420  -16.2850   24.6270 C.3   132  ILE132      0.1692
    129  C         24.3600  -15.4350   24.8340 C.2   132  ILE132      0.2592
    130  O         24.5760  -14.8970   25.9340 O.2   132  ILE132     -0.2718
    131  CB        21.8940  -15.3700   24.4470 C.3   132  ILE132      0.0266
    132  CG1       20.6380  -16.2060   24.2140 C.3   132  ILE132      0.0019
    133  CG2       22.1040  -14.3880   23.2830 C.3   132  ILE132      0.0020
    134  CD1       19.3510  -15.3980   24.2620 C.3   132  ILE132      0.0001
    135  N         25.1860  -15.3250   23.8030 N.am  133  LYS133     -0.1966
    136  CA        26.4260  -14.5590   23.8910 C.3   133  LYS133      0.1728
    137  C         26.2980  -13.2980   23.0140 C.2   133  LYS133      0.2617
    138  O         25.6980  -13.3440   21.9370 O.2   133  LYS133     -0.2715
    139  CB        27.5870  -15.4420   23.4090 C.3   133  LYS133      0.0311
    140  CG        28.9480  -14.8000   23.2970 C.3   133  LYS133      0.0038
    141  CD        29.6890  -14.8060   24.6140 C.3   133  LYS133      0.0206
    142  CE        31.1500  -14.3990   24.4520 C.3   133  LYS133      0.1093
    143  NZ        31.3190  -13.1070   23.7520 N.3   133  LYS133     -0.1314
    144  N         26.8380  -12.1640   23.4800 N.am  134  GLY134     -0.1940
    145  CA        26.7750  -10.9040   22.7250 C.3   134  GLY134      0.2014
    146  C         25.4560  -10.1580   22.7890 C.2   134  GLY134      0.2639
    147  O         25.1470   -9.3780   21.8740 O.2   134  GLY134     -0.2714
    148  N         24.6850  -10.3770   23.8490 N.am  135  PHE135     -0.1959
    149  CA        23.3920   -9.7210   23.9370 C.3   135  PHE135      0.1771
    150  C         23.5780   -8.2880   24.3940 C.2   135  PHE135      0.2620
    151  O         24.2360   -8.0180   25.4130 O.2   135  PHE135     -0.2715
    152  CB        22.4850  -10.4570   24.9260 C.3   135  PHE135      0.0574
    153  CG        21.0440  -10.1040   24.7870 C.ar  135  PHE135     -0.0200
    154  CD1       20.2990  -10.5800   23.7010 C.ar  135  PHE135     -0.0042
    155  CD2       20.4240   -9.2950   25.7220 C.ar  135  PHE135     -0.0042
    156  CE1       18.9760  -10.2570   23.5380 C.ar  135  PHE135     -0.0003
    157  CE2       19.0560   -8.9660   25.5520 C.ar  135  PHE135     -0.0003
    158  CZ        18.3550   -9.4280   24.4620 C.ar  135  PHE135     -0.0000
    159  N         22.9800   -7.3550   23.6620 N.am  136  THR136     -0.1951
    160  CA        23.1380   -5.9300   23.9290 C.3   136  THR136      0.1897
    161  C         22.7890   -5.6200   25.3820 C.2   136  THR136      0.2313
    162  O         21.7480   -6.0300   25.8810 O.2   136  THR136     -0.2863
    163  CB        22.1790   -5.1190   23.0170 C.3   136  THR136      0.1794
    164  OG1       22.5570   -5.3610   21.6560 O.3   136  THR136     -0.2208
    165  CG2       22.2450   -3.6230   23.2970 C.3   136  THR136      0.0378
@<TRIPOS>BOND
     1    60    59    2
     2    68    67    2
     3    67    66    1
     4    57    58    1
     5    26    27    2
     6    26    25    1
     7    59    58    1
     8    59    65   am
     9    58    61    1
    10    24    25    1
    11    25    28    1
    12    65    66    1
    13    66    69    1
    14    63    62    2
    15    61    62    1
    16    62    64   am
    17    28    29    1
    18    70    69    1
    19    23    22    2
    20    88    87   ar
    21    88    86   ar
    22    69    71    1
    23    29    30    1
    24    87    85   ar
    25    49    48    2
    26    33    32    1
    27    86    84   ar
    28    22    21    1
    29    48    47    1
    30    46    47    1
    31    85    83   ar
    32    30    31    1
    33    32    31    2
    34    32    34    1
    35    47    50    1
    36    21    20    1
    37    84    83   ar
    38    83    82    1
    39    72    73    1
    40    35    36    1
    41    50    51    1
    42    82    79    1
    43    51    52    1
    44    36    37    1
    45    36    39    1
    46    73    74    1
    47    73    76    1
    48    75    74    2
    49    44    42   ar
    50    44    45   ar
    51    74    78   am
    52    76    77    1
    53    37    38    2
    54    42    40   ar
    55    78    79    1
    56   101   102    1
    57   101    98    1
    58    45    43   ar
    59    79    80    1
    60    40    39    1
    61    40    41   ar
    62    43    41   ar
    63    98    97    1
    64    98    99    1
    65    52    53    1
    66    80    81    2
    67    80    89   am
    68    97    91   am
    69    99   100    2
    70    99   103   am
    71   109   103    1
    72   109   108    1
    73    53    54    2
    74    89    90    1
    75   103   104    1
    76    91    90    1
    77    91    92    2
    78   108   107    1
    79    54    55    1
    80    54    56    1
    81    90    93    1
    82   105   104    1
    83   105   106    2
    84    14    13    2
    85   104   107    1
    86    93    94    1
    87    93    95    1
    88    13    12    1
    89   118   117    1
    90    15    16    1
    91    15    12    1
    92    17    18    1
    93    17    16    1
    94    18    19    1
    95    94    96    1
    96    12    11    1
    97   117   116    1
    98   164   163    1
    99   147   146    2
   100   138   137    2
   101   116   115    1
   102   145   146    1
   103   145   144    1
   104   146   148   am
   105   137   144   am
   106   137   136    1
   107   163   165    1
   108   163   160    1
   109   133   131    1
   110   140   139    1
   111   140   141    1
   112   125   124    1
   113   139   136    1
   114   115   114    1
   115   156   154   ar
   116   156   158   ar
   117   159   160    1
   118   159   150   am
   119   154   153   ar
   120   143   142    1
   121   135   136    1
   122   135   129   am
   123   148   149    1
   124   126   124    1
   125   160   161    1
   126   149   150    1
   127   149   152    1
   128     2     5    1
   129     2     1    1
   130     2     3    1
   131   132   134    1
   132   132   131    1
   133     6     5    1
   134   150   151    2
   135   114   111    1
   136   124   123    1
   137   131   128    1
   138   142   141    1
   139   158   157   ar
   140   128   129    1
   141   128   127    1
   142   153   152    1
   143   153   155   ar
   144   129   130    2
   145     7     3   am
   146     7     8    1
   147     3     4    2
   148   161   162    2
   149   123   120    1
   150   157   155   ar
   151   111   112    1
   152   111   110    1
   153   113   112    2
   154     8     9    1
   155     9    10    2
   156   120   119    1
   157   120   121    1
   158   122   121    2
