@<TRIPOS>MOLECULE
tmp/2pf5E00.pdb
 95 93 0 0 0
SMALL
GASTEIGER

@<TRIPOS>ATOM
      1  N        -23.8240  -12.9420  -16.3540 N.3    11  LYS11      -0.1231
      2  CA       -24.1370  -11.5460  -16.0620 C.3    11  LYS11       0.1693
      3  C        -23.5490  -10.5820  -17.0950 C.2    11  LYS11       0.2592
      4  O        -22.3770  -10.7010  -17.4660 O.2    11  LYS11      -0.2718
      5  CB       -23.6340  -11.1780  -14.6620 C.3    11  LYS11       0.0285
      6  CG       -23.9960   -9.7680  -14.1860 C.3    11  LYS11       0.0035
      7  CD       -23.2970   -9.5190  -12.8620 C.3    11  LYS11       0.0206
      8  CE       -23.7190   -8.2200  -12.2370 C.3    11  LYS11       0.1093
      9  NZ       -22.9940   -8.0520  -10.9500 N.3    11  LYS11      -0.1314
     10  N        -24.3780   -9.6380  -17.5320 N.am   12  TYR12      -0.1976
     11  CA       -23.9730   -8.5460  -18.4550 C.3    12  TYR12       0.1639
     12  C        -23.4810   -9.0920  -19.8020 C.2    12  TYR12       0.2290
     13  O        -22.3180   -8.9170  -20.1780 O.2    12  TYR12      -0.2864
     14  CB       -22.9240   -7.6340  -17.8020 C.3    12  TYR12       0.0560
     15  CG       -23.4180   -6.8600  -16.5960 C.ar   12  TYR12      -0.0198
     16  CD1      -24.7900   -6.6530  -16.3760 C.ar   12  TYR12      -0.0009
     17  CD2      -22.5150   -6.2960  -15.7050 C.ar   12  TYR12      -0.0009
     18  CE1      -25.2410   -5.9330  -15.2740 C.ar   12  TYR12       0.0417
     19  CE2      -22.9570   -5.5670  -14.5940 C.ar   12  TYR12       0.0417
     20  CZ       -24.3180   -5.3840  -14.3890 C.ar   12  TYR12       0.1957
     21  OH       -24.7460   -4.6590  -13.2930 O.3    12  TYR12      -0.2866
     22  N        -29.9140   -5.4820   -8.0440 N.3    47  CYS47      -0.1221
     23  CA       -28.6070   -4.8390   -8.2540 C.3    47  CYS47       0.1808
     24  C        -27.8530   -5.4540   -9.4320 C.2    47  CYS47       0.2601
     25  O        -26.8600   -6.1680   -9.2570 O.2    47  CYS47      -0.2717
     26  CB       -27.8010   -4.8790   -6.9780 C.3    47  CYS47       0.0970
     27  SG       -28.7980   -4.2760   -5.6380 S.3    47  CYS47      -0.0800
     28  N        -28.3960   -5.1980  -10.6150 N.am   48  ALA48      -0.1965
     29  CA       -27.7840   -5.5010  -11.9150 C.3    48  ALA48       0.1728
     30  C        -28.3380   -4.5250  -12.9270 C.2    48  ALA48       0.2616
     31  O        -29.5510   -4.3510  -13.0430 O.2    48  ALA48      -0.2715
     32  CB       -28.0850   -6.9390  -12.3410 C.3    48  ALA48       0.0334
     33  N        -27.4550   -3.8690  -13.6650 N.am   49  ALA49      -0.1977
     34  CA       -27.8670   -2.9410  -14.7130 C.3    49  ALA49       0.1597
     35  C        -28.4550   -3.6990  -15.9140 C.2    49  ALA49       0.2287
     36  O        -27.9250   -4.7200  -16.3470 O.2    49  ALA49      -0.2864
     37  CB       -26.6870   -2.0590  -15.1430 C.3    49  ALA49       0.0319
     38  N        -30.9360    0.3770  -13.1080 N.3    59  TYR59      -0.1241
     39  CA       -31.3720   -0.6310  -12.0870 C.3    59  TYR59       0.1605
     40  C        -32.1510   -0.0700  -10.9000 C.2    59  TYR59       0.2264
     41  O        -31.8120    1.0080  -10.4010 O.2    59  TYR59      -0.2867
     42  CB       -30.1940   -1.4870  -11.6150 C.3    59  TYR59       0.0534
     43  CG       -29.0440   -0.7280  -11.0070 C.ar   59  TYR59      -0.0201
     44  CD1      -28.8800   -0.7040   -9.6300 C.ar   59  TYR59      -0.0009
     45  CD2      -28.1030   -0.0680  -11.8030 C.ar   59  TYR59      -0.0009
     46  CE1      -27.8380   -0.0360   -9.0400 C.ar   59  TYR59       0.0417
     47  CE2      -27.0450    0.6120  -11.2170 C.ar   59  TYR59       0.0417
     48  CZ       -26.9140    0.6240   -9.8300 C.ar   59  TYR59       0.1957
     49  OH       -25.8850    1.2890   -9.1950 O.3    59  TYR59      -0.2866
     50  N        -28.1870    4.5650  -16.1040 N.3    66  TYR66      -0.1241
     51  CA       -26.9770    4.4370  -16.9400 C.3    66  TYR66       0.1605
     52  C        -27.1410    5.1510  -18.2920 C.2    66  TYR66       0.2264
     53  O        -26.2410    5.1200  -19.1320 O.2    66  TYR66      -0.2867
     54  CB       -26.5880    2.9420  -17.0600 C.3    66  TYR66       0.0534
     55  CG       -25.6590    2.5900  -15.9470 C.ar   66  TYR66      -0.0201
     56  CD1      -25.9260    3.0090  -14.6280 C.ar   66  TYR66      -0.0009
     57  CD2      -24.4460    1.9620  -16.2010 C.ar   66  TYR66      -0.0009
     58  CE1      -25.0280    2.7720  -13.5950 C.ar   66  TYR66       0.0417
     59  CE2      -23.5300    1.7200  -15.1640 C.ar   66  TYR66       0.0417
     60  CZ       -23.8280    2.1180  -13.8650 C.ar   66  TYR66       0.1957
     61  OH       -22.8960    1.8870  -12.8580 O.3    66  TYR66      -0.2866
     62  N        -28.2220    4.5520  -24.1350 N.3    69  ARG69      -0.1245
     63  CA       -26.8650    4.2040  -24.6030 C.3    69  ARG69       0.1563
     64  C        -26.7160    4.4040  -26.1060 C.2    69  ARG69       0.2260
     65  O        -27.5740    3.9530  -26.8960 O.2    69  ARG69      -0.2867
     66  CB       -26.5240    2.7470  -24.2400 C.3    69  ARG69       0.0307
     67  CG       -26.8680    2.3480  -22.7760 C.3    69  ARG69       0.0489
     68  CD       -26.0840    3.1780  -21.7520 C.3    69  ARG69       0.2205
     69  NE       -24.6320    3.0680  -21.9890 N.pl3  69  ARG69      -0.0865
     70  CZ       -23.7420    3.9720  -21.6380 C.cat  69  ARG69       0.5346
     71  NH1      -24.1060    5.0670  -20.9690 N.pl3  69  ARG69       0.1354
     72  NH2      -22.4470    3.7730  -21.9360 N.pl3  69  ARG69       0.1354
     73  N        -23.5010   -2.7310  -26.4520 N.3    74  GLU74      -0.1245
     74  CA       -23.0740   -2.9100  -25.0650 C.3    74  GLU74       0.1567
     75  C        -23.7880   -4.1130  -24.4530 C.2    74  GLU74       0.2260
     76  O        -24.9460   -4.3820  -24.7830 O.2    74  GLU74      -0.2867
     77  CB       -23.3460   -1.6530  -24.2480 C.3    74  GLU74       0.0388
     78  CG       -22.4370   -0.4660  -24.6020 C.3    74  GLU74       0.1160
     79  CD       -22.6970    0.7360  -23.7190 C.2    74  GLU74       0.3649
     80  OE1      -23.6280    0.6550  -22.8810 O.co2  74  GLU74      -0.2457
     81  OE2      -21.9610    1.7530  -23.8450 O.co2  74  GLU74      -0.2457
     82  N        -25.3820   -5.9860  -21.2850 N.3    76  TRP76      -0.1241
     83  CA       -25.9620   -5.7780  -19.9720 C.3    76  TRP76       0.1605
     84  C        -26.9810   -6.8980  -19.7020 C.2    76  TRP76       0.2264
     85  O        -27.0440   -7.8890  -20.4360 O.2    76  TRP76      -0.2867
     86  CB       -26.6610   -4.4380  -19.9300 C.3    76  TRP76       0.0550
     87  CG       -25.7520   -3.2200  -20.1450 C.ar   76  TRP76       0.0003
     88  CD1      -25.6240   -2.4740  -21.2870 C.ar   76  TRP76       0.0946
     89  CD2      -24.8890   -2.6250  -19.1760 C.ar   76  TRP76       0.0152
     90  NE1      -24.7330   -1.4480  -21.0850 N.ar   76  TRP76      -0.2442
     91  CE2      -24.2630   -1.5150  -19.7980 C.ar   76  TRP76       0.0810
     92  CE3      -24.5850   -2.9150  -17.8360 C.ar   76  TRP76       0.0012
     93  CZ2      -23.3660   -0.6880  -19.1280 C.ar   76  TRP76       0.0191
     94  CZ3      -23.6640   -2.0900  -17.1540 C.ar   76  TRP76       0.0001
     95  CH2      -23.0590   -1.0000  -17.8120 C.ar   76  TRP76       0.0015
@<TRIPOS>BOND
     1    65    64    2
     2    73    74    1
     3    64    63    1
     4    74    75    1
     5    74    77    1
     6    76    75    2
     7    63    66    1
     8    63    62    1
     9    78    77    1
    10    78    79    1
    11    66    67    1
    12    81    79   ar
    13    79    80   ar
    14    67    68    1
    15    69    68    1
    16    69    70    2
    17    72    70    1
    18    70    71    1
    19    88    90   ar
    20    88    87   ar
    21    82    83    1
    22    90    91   ar
    23    85    84    2
    24    13    12    2
    25    87    86    1
    26    87    89   ar
    27    83    86    1
    28    83    84    1
    29    12    11    1
    30    91    89   ar
    31    91    93   ar
    32    89    92   ar
    33    53    52    2
    34    93    95   ar
    35    11    14    1
    36    11    10    1
    37    52    51    1
    38    92    94   ar
    39    95    94   ar
    40    14    15    1
    41    10     3   am
    42     4     3    2
    43     3     2    1
    44    54    51    1
    45    54    55    1
    46    51    50    1
    47    15    16   ar
    48    15    17   ar
    49    16    18   ar
    50     1     2    1
    51    36    35    2
    52    57    55   ar
    53    57    59   ar
    54     2     5    1
    55    55    56   ar
    56    35    34    1
    57    17    19   ar
    58    18    20   ar
    59    59    60   ar
    60    37    34    1
    61    34    33    1
    62     5     6    1
    63    56    58   ar
    64    19    20   ar
    65    20    21    1
    66     6     7    1
    67    60    58   ar
    68    60    61    1
    69    33    30   am
    70    38    39    1
    71    31    30    2
    72    30    29    1
    73     7     8    1
    74    32    29    1
    75     8     9    1
    76    39    42    1
    77    39    40    1
    78    29    28    1
    79    45    47   ar
    80    45    43   ar
    81    42    43    1
    82    47    48   ar
    83    43    44   ar
    84    40    41    2
    85    28    24   am
    86    48    49    1
    87    48    46   ar
    88    44    46   ar
    89    24    25    2
    90    24    23    1
    91    23    22    1
    92    23    26    1
    93    26    27    1
