@<TRIPOS>MOLECULE
tmp/2pf5A00.pdb
 100 96 0 0 0
SMALL
GASTEIGER

@<TRIPOS>ATOM
      1  N        -18.4470   -1.5140   -5.7540 N.3     5  ARG5       -0.1231
      2  CA       -18.8250   -1.6040   -7.1690 C.3     5  ARG5        0.1694
      3  C        -17.7020   -2.2620   -7.9830 C.2     5  ARG5        0.2592
      4  O        -16.5170   -1.9890   -7.7580 O.2     5  ARG5       -0.2718
      5  CB       -19.1670   -0.2170   -7.7490 C.3     5  ARG5        0.0321
      6  CG       -20.5300    0.3950   -7.3560 C.3     5  ARG5        0.0489
      7  CD       -21.7290   -0.1200   -8.2080 C.3     5  ARG5        0.2205
      8  NE       -23.0290    0.4310   -7.7960 N.pl3   5  ARG5       -0.0865
      9  CZ       -23.7780    0.0180   -6.7680 C.cat   5  ARG5        0.5346
     10  NH1      -23.3970   -0.9800   -5.9570 N.pl3   5  ARG5        0.1354
     11  NH2      -24.9210    0.6340   -6.5280 N.pl3   5  ARG5        0.1354
     12  N        -18.0950   -3.1400   -8.9050 N.am    6  GLU6       -0.1966
     13  CA       -17.1910   -3.7290   -9.9110 C.3     6  GLU6        0.1733
     14  C        -17.3960   -3.0130  -11.2400 C.2     6  GLU6        0.2616
     15  O        -18.5080   -2.5030  -11.5110 O.2     6  GLU6       -0.2715
     16  CB       -17.6050   -5.1640  -10.1930 C.3     6  GLU6        0.0429
     17  CG       -17.3280   -6.1470   -9.1120 C.3     6  GLU6        0.1163
     18  CD       -17.6080   -7.5480   -9.5820 C.2     6  GLU6        0.3649
     19  OE1      -18.3060   -7.7340  -10.5990 O.co2   6  GLU6       -0.2457
     20  OE2      -17.1270   -8.4700   -8.9350 O.co2   6  GLU6       -0.2457
     21  N        -16.3640   -3.0170  -12.0980 N.am    7  ALA7       -0.1963
     22  CA       -16.5930   -2.7710  -13.5310 C.3     7  ALA7        0.1728
     23  C        -17.6740   -3.7050  -14.1080 C.2     7  ALA7        0.2616
     24  O        -17.8330   -4.8470  -13.6650 O.2     7  ALA7       -0.2715
     25  CB       -15.3120   -2.9490  -14.3470 C.3     7  ALA7        0.0334
     26  N        -18.3530   -3.2330  -15.1510 N.am    8  ARG8       -0.1963
     27  CA       -19.3110   -4.0510  -15.9120 C.3     8  ARG8        0.1729
     28  C        -18.6360   -5.3650  -16.3430 C.2     8  ARG8        0.2616
     29  O        -19.2580   -6.4160  -16.3310 O.2     8  ARG8       -0.2715
     30  CB       -19.8120   -3.2830  -17.1620 C.3     8  ARG8        0.0348
     31  CG       -20.9750   -3.9270  -17.9130 C.3     8  ARG8        0.0492
     32  CD       -21.0220   -3.6020  -19.4600 C.3     8  ARG8        0.2205
     33  NE       -19.7670   -4.0010  -20.0730 N.pl3   8  ARG8       -0.0865
     34  CZ       -19.4760   -5.2300  -20.4750 C.cat   8  ARG8        0.5346
     35  NH1      -20.3780   -6.2060  -20.4400 N.pl3   8  ARG8        0.1354
     36  NH2      -18.2680   -5.4710  -20.9530 N.pl3   8  ARG8        0.1354
     37  N        -17.3470   -5.2890  -16.7050 N.am    9  SER9       -0.1950
     38  CA       -16.6190   -6.4400  -17.2770 C.3     9  SER9        0.1924
     39  C        -16.1910   -7.4650  -16.2130 C.2     9  SER9        0.2314
     40  O        -15.7060   -8.5430  -16.5530 O.2     9  SER9       -0.2863
     41  CB       -15.3970   -5.9630  -18.0670 C.3     9  SER9        0.2116
     42  OG       -14.6210   -5.0940  -17.2370 O.3     9  SER9       -0.2180
     43  N        -11.2400   -4.7660  -12.4220 N.3    13  LYS13      -0.1231
     44  CA       -11.0850   -4.2630  -13.7710 C.3    13  LYS13       0.1693
     45  C        -11.1600   -2.7230  -13.8380 C.2    13  LYS13       0.2591
     46  O        -11.2520   -2.1540  -14.9260 O.2    13  LYS13      -0.2718
     47  CB       -12.1120   -4.9590  -14.6850 C.3    13  LYS13       0.0285
     48  CG       -11.5490   -6.2470  -15.3060 C.3    13  LYS13       0.0035
     49  CD       -12.6050   -7.2840  -15.5170 C.3    13  LYS13       0.0206
     50  CE       -11.9930   -8.5950  -16.0220 C.3    13  LYS13       0.1093
     51  NZ       -11.3320   -8.4870  -17.3640 N.3    13  LYS13      -0.1314
     52  N        -11.0960   -2.0470  -12.6860 N.am   14  LEU14      -0.1980
     53  CA       -11.1000   -0.5820  -12.6680 C.3    14  LEU14       0.1596
     54  C         -9.7470   -0.0090  -12.2740 C.2    14  LEU14       0.2287
     55  O         -9.1940   -0.3710  -11.2420 O.2    14  LEU14      -0.2864
     56  CB       -12.1670   -0.0020  -11.7050 C.3    14  LEU14       0.0297
     57  CG       -13.6230   -0.3980  -11.9980 C.3    14  LEU14       0.0022
     58  CD1      -14.4470   -0.1230  -10.7260 C.3    14  LEU14       0.0001
     59  CD2      -14.1660    0.3660  -13.1500 C.3    14  LEU14       0.0001
     60  N        -10.8040    5.2450  -13.2720 N.3    18  GLU18      -0.1245
     61  CA       -12.0790    4.6490  -13.6550 C.3    18  GLU18       0.1567
     62  C        -12.9670    4.4400  -12.4320 C.2    18  GLU18       0.2260
     63  O        -14.1890    4.6790  -12.4700 O.2    18  GLU18      -0.2867
     64  CB       -11.8580    3.3170  -14.3610 C.3    18  GLU18       0.0388
     65  CG       -11.2460    3.5370  -15.7360 C.3    18  GLU18       0.1160
     66  CD       -10.8550    2.2610  -16.4420 C.2    18  GLU18       0.3649
     67  OE1      -10.6400    1.2070  -15.7870 O.co2  18  GLU18      -0.2457
     68  OE2      -10.7100    2.3530  -17.6820 O.co2  18  GLU18      -0.2457
     69  N        -14.3360    7.8010  -11.5160 N.3    21  ALA21      -0.1231
     70  CA       -15.4010    8.1070  -12.4640 C.3    21  ALA21       0.1694
     71  C        -16.7140    7.3210  -12.2350 C.2    21  ALA21       0.2591
     72  O        -17.8180    7.8810  -12.3540 O.2    21  ALA21      -0.2718
     73  CB       -14.8590    7.9160  -13.9500 C.3    21  ALA21       0.0304
     74  N        -16.5950    6.0390  -11.8820 N.am   22  VAL22      -0.1980
     75  CA       -17.7770    5.2110  -11.6050 C.3    22  VAL22       0.1595
     76  C        -18.5420    5.7410  -10.3620 C.2    22  VAL22       0.2287
     77  O        -19.7690    5.9060  -10.3970 O.2    22  VAL22      -0.2864
     78  CB       -17.3910    3.7330  -11.3780 C.3    22  VAL22       0.0276
     79  CG1      -18.6040    2.9320  -10.8230 C.3    22  VAL22       0.0022
     80  CG2      -16.9330    3.1170  -12.7040 C.3    22  VAL22       0.0022
     81  N        -20.1960    8.9350  -11.4060 N.3    25  PHE25      -0.1227
     82  CA       -21.2760    8.6670  -12.3390 C.3    25  PHE25       0.1736
     83  C        -22.5530    8.3150  -11.5750 C.2    25  PHE25       0.2595
     84  O        -23.6630    8.6650  -12.0070 O.2    25  PHE25      -0.2718
     85  CB       -20.8810    7.5160  -13.2720 C.3    25  PHE25       0.0547
     86  CG       -21.9550    7.1190  -14.2420 C.ar   25  PHE25      -0.0202
     87  CD1      -22.4430    8.0160  -15.1810 C.ar   25  PHE25      -0.0042
     88  CD2      -22.4140    5.8130  -14.2640 C.ar   25  PHE25      -0.0042
     89  CE1      -23.4330    7.6330  -16.1080 C.ar   25  PHE25      -0.0003
     90  CE2      -23.3890    5.4140  -15.1940 C.ar   25  PHE25      -0.0003
     91  CZ       -23.8990    6.3170  -16.0980 C.ar   25  PHE25      -0.0000
     92  N        -22.3840    7.6300  -10.4510 N.am   26  GLU26      -0.1979
     93  CA       -23.5310    7.1490   -9.6860 C.3    26  GLU26       0.1602
     94  C        -23.9800    8.1680   -8.6500 C.2    26  GLU26       0.2287
     95  O        -24.8900    7.8850   -7.8540 O.2    26  GLU26      -0.2864
     96  CB       -23.2280    5.7840   -9.0340 C.3    26  GLU26       0.0415
     97  CG       -23.1840    4.6720  -10.1080 C.3    26  GLU26       0.1163
     98  CD       -23.0820    3.2370   -9.5610 C.2    26  GLU26       0.3649
     99  OE1      -22.9860    3.0470   -8.3300 O.co2  26  GLU26      -0.2457
    100  OE2      -23.1420    2.2890  -10.3910 O.co2  26  GLU26      -0.2457
@<TRIPOS>BOND
     1    36    34    1
     2    34    35    1
     3    34    33    2
     4    33    32    1
     5    32    31    1
     6    41    38    1
     7    41    42    1
     8    31    30    1
     9    68    66   ar
    10    51    50    1
    11    38    37    1
    12    38    39    1
    13    30    27    1
    14    37    28   am
    15    40    39    2
    16    66    67   ar
    17    66    65    1
    18    28    29    2
    19    28    27    1
    20    89    91   ar
    21    89    87   ar
    22    91    90   ar
    23    50    49    1
    24    27    26    1
    25    65    64    1
    26    49    48    1
    27    48    47    1
    28    90    88   ar
    29    87    86   ar
    30    26    23   am
    31    46    45    2
    32    47    44    1
    33    64    61    1
    34    25    22    1
    35    88    86   ar
    36    86    85    1
    37    23    24    2
    38    23    22    1
    39    73    70    1
    40    45    44    1
    41    45    52   am
    42    44    43    1
    43    61    60    1
    44    61    62    1
    45    22    21    1
    46    85    82    1
    47    59    57    1
    48    80    78    1
    49    52    53    1
    50    53    54    1
    51    53    56    1
    52    63    62    2
    53    70    71    1
    54    70    69    1
    55    72    71    2
    56    82    83    1
    57    82    81    1
    58    54    55    2
    59    71    74   am
    60    21    14   am
    61    84    83    2
    62    57    56    1
    63    57    58    1
    64    74    75    1
    65    75    78    1
    66    75    76    1
    67    83    92   am
    68    15    14    2
    69    78    79    1
    70    14    13    1
    71    19    18   ar
    72    92    93    1
    73    77    76    2
    74   100    98   ar
    75    16    13    1
    76    16    17    1
    77    97    98    1
    78    97    96    1
    79    13    12    1
    80    93    96    1
    81    93    94    1
    82    18    17    1
    83    18    20   ar
    84    98    99   ar
    85    12     3   am
    86    94    95    2
    87     7     8    1
    88     7     6    1
    89     3     4    2
    90     3     2    1
    91     8     9    2
    92     5     6    1
    93     5     2    1
    94     2     1    1
    95     9    11    1
    96     9    10    1
