@<TRIPOS>MOLECULE
tmp/2pf5D02.pdb
 111 106 0 0 0
SMALL
GASTEIGER

@<TRIPOS>ATOM
      1  N        -22.7230   25.5640   43.2770 N.3     5  ARG5       -0.1231
      2  CA       -21.4570   26.2760   43.1510 C.3     5  ARG5        0.1694
      3  C        -21.1690   26.5370   41.6810 C.2     5  ARG5        0.2592
      4  O        -21.3840   25.6820   40.8170 O.2     5  ARG5       -0.2718
      5  CB       -20.3080   25.5010   43.8180 C.3     5  ARG5        0.0321
      6  CG       -18.8990   26.0860   43.6630 C.3     5  ARG5        0.0489
      7  CD       -18.6120   27.3020   44.5580 C.3     5  ARG5        0.2205
      8  NE       -18.8150   27.0700   45.9920 N.pl3   5  ARG5       -0.0865
      9  CZ       -19.7860   27.6200   46.7240 C.cat   5  ARG5        0.5346
     10  NH1      -20.6700   28.4560   46.1720 N.pl3   5  ARG5        0.1354
     11  NH2      -19.8670   27.3500   48.0260 N.pl3   5  ARG5        0.1354
     12  N        -20.7370   27.7530   41.4140 N.am    6  GLU6       -0.1966
     13  CA       -20.2380   28.0600   40.0850 C.3     6  GLU6        0.1733
     14  C        -18.7420   28.3530   40.1730 C.2     6  GLU6        0.2616
     15  O        -18.2300   28.6930   41.2470 O.2     6  GLU6       -0.2715
     16  CB       -21.0390   29.1730   39.4010 C.3     6  GLU6        0.0429
     17  CG       -21.0070   30.4820   40.0680 C.3     6  GLU6        0.1163
     18  CD       -21.7090   31.5710   39.2680 C.2     6  GLU6        0.3649
     19  OE1      -22.7330   31.3220   38.6130 O.co2   6  GLU6       -0.2457
     20  OE2      -21.2330   32.6980   39.3110 O.co2   6  GLU6       -0.2457
     21  N        -18.0390   28.2050   39.0480 N.am    7  ALA7       -0.1963
     22  CA       -16.6710   28.6730   38.9610 C.3     7  ALA7        0.1728
     23  C        -16.5630   30.1450   39.3650 C.2     7  ALA7        0.2616
     24  O        -17.4950   30.9430   39.1730 O.2     7  ALA7       -0.2715
     25  CB       -16.1410   28.4890   37.5230 C.3     7  ALA7        0.0334
     26  N        -15.4100   30.5380   39.8910 N.am    8  ARG8       -0.1963
     27  CA       -15.1320   31.9550   40.1720 C.3     8  ARG8        0.1729
     28  C        -15.4230   32.8280   38.9550 C.2     8  ARG8        0.2616
     29  O        -15.8060   33.9760   39.0720 O.2     8  ARG8       -0.2715
     30  CB       -13.6780   32.1580   40.6120 C.3     8  ARG8        0.0348
     31  CG       -13.3780   31.6690   42.0280 C.3     8  ARG8        0.0492
     32  CD       -11.8930   31.7890   42.3880 C.3     8  ARG8        0.2205
     33  NE       -11.4110   33.1690   42.4560 N.pl3   8  ARG8       -0.0865
     34  CZ       -10.6360   33.7400   41.5380 C.cat   8  ARG8        0.5346
     35  NH1      -10.2530   33.0550   40.4630 N.pl3   8  ARG8        0.1354
     36  NH2      -10.2420   34.9980   41.6910 N.pl3   8  ARG8        0.1354
     37  N        -15.1360   32.2820   37.7830 N.am    9  SER9       -0.1950
     38  CA       -15.1480   33.0350   36.5360 C.3     9  SER9        0.1924
     39  C        -16.5310   33.0800   35.9120 C.2     9  SER9        0.2314
     40  O        -16.7820   33.8410   34.9950 O.2     9  SER9       -0.2863
     41  CB       -14.1620   32.4290   35.5430 C.3     9  SER9        0.2116
     42  OG       -14.3060   31.0330   35.4720 O.3     9  SER9       -0.2180
     43  N        -18.9550   26.9700   33.8150 N.3    13  LYS13      -0.1231
     44  CA       -17.5150   26.9600   33.5500 C.3    13  LYS13       0.1693
     45  C        -16.7650   25.8150   34.2200 C.2    13  LYS13       0.2591
     46  O        -15.5350   25.8770   34.2890 O.2    13  LYS13      -0.2718
     47  CB       -16.8740   28.2760   34.0230 C.3    13  LYS13       0.0285
     48  CG       -17.5550   29.5420   33.5540 C.3    13  LYS13       0.0035
     49  CD       -16.9710   30.1020   32.3240 C.3    13  LYS13       0.0206
     50  CE       -17.6300   31.4220   31.9840 C.3    13  LYS13       0.1093
     51  NZ       -16.6310   32.4650   31.8720 N.3    13  LYS13      -0.1314
     52  N        -17.4620   24.7880   34.7080 N.am   14  LEU14      -0.1980
     53  CA       -16.7860   23.6740   35.3580 C.3    14  LEU14       0.1596
     54  C        -16.9870   22.3870   34.6000 C.2    14  LEU14       0.2287
     55  O        -18.1310   21.9990   34.3470 O.2    14  LEU14      -0.2864
     56  CB       -17.3110   23.4700   36.8140 C.3    14  LEU14       0.0297
     57  CG       -17.1780   24.6290   37.7800 C.3    14  LEU14       0.0022
     58  CD1      -18.0190   24.2700   39.0560 C.3    14  LEU14       0.0001
     59  CD2      -15.6880   24.8110   38.1380 C.3    14  LEU14       0.0001
     60  N        -13.4960   19.2310   37.3450 N.3    18  GLU18      -0.1245
     61  CA       -13.4100   20.4620   38.1100 C.3    18  GLU18       0.1567
     62  C        -14.5200   20.5470   39.1730 C.2    18  GLU18       0.2260
     63  O        -14.2820   20.9530   40.2920 O.2    18  GLU18      -0.2867
     64  CB       -13.4490   21.6780   37.1840 C.3    18  GLU18       0.0388
     65  CG       -12.1190   21.7800   36.3410 C.3    18  GLU18       0.1160
     66  CD       -12.2520   22.6590   35.1210 C.2    18  GLU18       0.3649
     67  OE1      -13.3610   23.2080   34.8700 O.co2  18  GLU18      -0.2457
     68  OE2      -11.2250   22.7790   34.3810 O.co2  18  GLU18      -0.2457
     69  N        -13.7470   18.1770   42.0790 N.3    21  ALA21      -0.1231
     70  CA       -12.6740   18.7610   42.8630 C.3    21  ALA21       0.1694
     71  C        -13.1410   19.9450   43.7180 C.2    21  ALA21       0.2591
     72  O        -12.6820   20.0880   44.8420 O.2    21  ALA21      -0.2718
     73  CB       -11.4920   19.1880   41.9240 C.3    21  ALA21       0.0304
     74  N        -14.0600   20.7700   43.1880 N.am   22  VAL22      -0.1980
     75  CA       -14.5600   21.9220   43.9470 C.3    22  VAL22       0.1595
     76  C        -15.2770   21.3910   45.2060 C.2    22  VAL22       0.2287
     77  O        -15.0340   21.8750   46.3030 O.2    22  VAL22      -0.2864
     78  CB       -15.5610   22.8100   43.1190 C.3    22  VAL22       0.0276
     79  CG1      -16.2090   23.8740   44.0360 C.3    22  VAL22       0.0022
     80  CG2      -14.8370   23.5310   41.9720 C.3    22  VAL22       0.0022
     81  N        -12.7650   19.8680   47.6100 N.3    25  PHE25      -0.1227
     82  CA       -11.9630   20.9290   48.2410 C.3    25  PHE25       0.1736
     83  C        -12.7530   21.5350   49.4140 C.2    25  PHE25       0.2595
     84  O        -12.1850   21.8410   50.4730 O.2    25  PHE25      -0.2718
     85  CB       -11.6140   22.0390   47.2280 C.3    25  PHE25       0.0547
     86  CG       -10.8300   23.1670   47.8330 C.ar   25  PHE25      -0.0202
     87  CD1       -9.4420   23.1120   47.9030 C.ar   25  PHE25      -0.0042
     88  CD2      -11.4840   24.2880   48.3570 C.ar   25  PHE25      -0.0042
     89  CE1       -8.7190   24.1360   48.4620 C.ar   25  PHE25      -0.0003
     90  CE2      -10.7600   25.3280   48.9400 C.ar   25  PHE25      -0.0003
     91  CZ        -9.3830   25.2530   49.0050 C.ar   25  PHE25      -0.0000
     92  N        -14.0620   21.6790   49.2060 N.am   26  GLU26      -0.1979
     93  CA       -14.9310   22.2930   50.2110 C.3    26  GLU26       0.1602
     94  C        -15.4000   21.3190   51.2890 C.2    26  GLU26       0.2287
     95  O        -16.1850   21.6980   52.1800 O.2    26  GLU26      -0.2864
     96  CB       -16.0820   23.0840   49.5450 C.3    26  GLU26       0.0415
     97  CG       -15.5840   24.3820   48.8830 C.3    26  GLU26       0.1163
     98  CD       -16.6440   25.1000   48.0370 C.2    26  GLU26       0.3649
     99  OE1      -17.8420   24.7440   48.0960 O.co2  26  GLU26      -0.2457
    100  OE2      -16.2820   26.0160   47.2730 O.co2  26  GLU26      -0.2457
    101  N        -19.0460   22.0520   30.1420 N.3    87  ARG87      -0.1245
    102  CA       -18.9060   22.9890   31.2460 C.3    87  ARG87       0.1563
    103  C        -20.2780   23.3680   31.8210 C.2    87  ARG87       0.2260
    104  O        -21.1180   23.9320   31.1330 O.2    87  ARG87      -0.2867
    105  CB       -18.1500   24.2490   30.8020 C.3    87  ARG87       0.0307
    106  CG       -16.7470   23.9330   30.2750 C.3    87  ARG87       0.0489
    107  CD       -16.1210   25.1780   29.7040 C.3    87  ARG87       0.2205
    108  NE       -15.3790   25.8740   30.7340 N.pl3  87  ARG87      -0.0865
    109  CZ       -14.9390   27.1340   30.6420 C.cat  87  ARG87       0.5346
    110  NH1      -15.2010   27.8780   29.5640 N.pl3  87  ARG87       0.1354
    111  NH2      -14.2440   27.6600   31.6460 N.pl3  87  ARG87       0.1354
@<TRIPOS>BOND
     1   110   109    1
     2   107   106    1
     3   107   108    1
     4   101   102    1
     5   106   105    1
     6   109   108    2
     7   109   111    1
     8   105   102    1
     9   104   103    2
    10   102   103    1
    11    51    50    1
    12    50    49    1
    13    49    48    1
    14    44    43    1
    15    44    47    1
    16    44    45    1
    17    48    47    1
    18    45    46    2
    19    45    52   am
    20    55    54    2
    21    68    66   ar
    22    54    53    1
    23    52    53    1
    24    67    66   ar
    25    40    39    2
    26    66    65    1
    27    53    56    1
    28    42    41    1
    29    41    38    1
    30    39    38    1
    31    65    64    1
    32    38    37    1
    33    56    57    1
    34    64    61    1
    35    60    61    1
    36    25    22    1
    37    57    59    1
    38    57    58    1
    39    37    28   am
    40    61    62    1
    41    19    18   ar
    42    28    29    2
    43    28    27    1
    44    22    21    1
    45    22    23    1
    46    21    14   am
    47    24    23    2
    48    62    63    2
    49    18    20   ar
    50    18    17    1
    51    23    26   am
    52    16    17    1
    53    16    13    1
    54    26    27    1
    55    13    14    1
    56    13    12    1
    57    27    30    1
    58    14    15    2
    59    35    34    1
    60    30    31    1
    61     4     3    2
    62    12     3   am
    63    34    36    1
    64    34    33    2
    65     3     2    1
    66    73    70    1
    67    80    78    1
    68    31    32    1
    69    69    70    1
    70    32    33    1
    71    70    71    1
    72    78    75    1
    73    78    79    1
    74     2     1    1
    75     2     5    1
    76    74    71   am
    77    74    75    1
    78     6     5    1
    79     6     7    1
    80    71    72    2
    81    75    76    1
    82     7     8    1
    83    76    77    2
    84     8     9    2
    85    10     9    1
    86     9    11    1
    87    85    86    1
    88    85    82    1
    89   100    98   ar
    90    81    82    1
    91    86    87   ar
    92    86    88   ar
    93    87    89   ar
    94    98    99   ar
    95    98    97    1
    96    82    83    1
    97    88    90   ar
    98    89    91   ar
    99    97    96    1
   100    90    91   ar
   101    92    83   am
   102    92    93    1
   103    83    84    2
   104    96    93    1
   105    93    94    1
   106    94    95    2
