@<TRIPOS>MOLECULE
tmp/2pfeA00.pdb
 81 77 0 0 0
SMALL
GASTEIGER

@<TRIPOS>ATOM
      1  N         30.8390   20.3270   44.1290 N.3    35  HIS35      -0.1241
      2  CA        30.0820   21.5210   44.5220 C.3    35  HIS35       0.1621
      3  C         30.9700   22.6870   44.9400 C.2    35  HIS35       0.2264
      4  O         30.4940   23.8240   45.0740 O.2    35  HIS35      -0.2867
      5  CB        29.0440   21.2180   45.6220 C.3    35  HIS35       0.0745
      6  CG        29.6300   21.0780   46.9940 C.ar   35  HIS35       0.0817
      7  ND1       29.7250   19.8690   47.6470 N.ar   35  HIS35      -0.2268
      8  CD2       30.1160   22.0100   47.8530 C.ar   35  HIS35       0.1154
      9  CE1       30.2850   20.0520   48.8320 C.ar   35  HIS35       0.1986
     10  NE2       30.5270   21.3410   48.9830 N.ar   35  HIS35      -0.2212
     11  N         30.8660   16.9350   60.2750 N.3   135  ALA135     -0.1231
     12  CA        31.6190   17.8690   59.4420 C.3   135  ALA135      0.1694
     13  C         30.9700   19.2300   59.5510 C.2   135  ALA135      0.2592
     14  O         29.8030   19.3400   59.9590 O.2   135  ALA135     -0.2718
     15  CB        31.6400   17.4210   57.9670 C.3   135  ALA135      0.0304
     16  N         31.7060   20.2530   59.1240 N.am  136  GLU136     -0.1966
     17  CA        31.1930   21.6210   59.0780 C.3   136  GLU136      0.1733
     18  C         31.6480   22.3180   57.8000 C.2   136  GLU136      0.2616
     19  O         32.5640   21.8470   57.1050 O.2   136  GLU136     -0.2715
     20  CB        31.6520   22.4030   60.3130 C.3   136  GLU136      0.0429
     21  CG        31.1170   21.8420   61.6160 C.3   136  GLU136      0.1163
     22  CD        31.6900   22.5260   62.8180 C.2   136  GLU136      0.3649
     23  OE1       32.2950   23.6150   62.6360 O.co2 136  GLU136     -0.2457
     24  OE2       31.5340   21.9770   63.9420 O.co2 136  GLU136     -0.2457
     25  N         31.0490   23.4740   57.5150 N.am  137  GLY137     -0.1955
     26  CA        31.3870   24.1970   56.3050 C.3   137  GLY137      0.1869
     27  C         32.8910   24.4500   56.2960 C.2   137  GLY137      0.2309
     28  O         33.4840   24.7670   57.3360 O.2   137  GLY137     -0.2863
     29  N         34.9310   22.0250   55.4000 N.3   139  ASP139     -0.1225
     30  CA        35.4680   20.6570   55.3670 C.3   139  ASP139      0.1805
     31  C         35.2090   19.9780   54.0230 C.2   139  ASP139      0.2598
     32  O         35.7250   18.8960   53.7690 O.2   139  ASP139     -0.2718
     33  CB        34.8550   19.7700   56.4610 C.3   139  ASP139      0.1424
     34  CG        35.3140   20.1350   57.8690 C.2   139  ASP139      0.3668
     35  OD1       36.4510   20.6530   58.0570 O.co2 139  ASP139     -0.2456
     36  OD2       34.5350   19.8540   58.8220 O.co2 139  ASP139     -0.2456
     37  N         34.3460   20.5650   53.1940 N.am  140  SER140     -0.1952
     38  CA        33.8920   19.8940   51.9770 C.3   140  SER140      0.1924
     39  C         35.0510   19.6740   51.0150 C.2   140  SER140      0.2314
     40  O         35.9150   20.5230   50.8930 O.2   140  SER140     -0.2863
     41  CB        32.7630   20.6800   51.3270 C.3   140  SER140      0.2116
     42  OG        31.7430   20.9370   52.2940 O.3   140  SER140     -0.2180
     43  N         34.4890   14.6540   51.0040 N.3   154  THR154     -0.1203
     44  CA        33.3040   15.1130   51.7170 C.3   154  THR154      0.1994
     45  C         32.3410   15.8680   50.8000 C.2   154  THR154      0.2619
     46  O         32.7090   16.8630   50.1490 O.2   154  THR154     -0.2717
     47  CB        33.6840   16.0150   52.8910 C.3   154  THR154      0.1784
     48  OG1       34.6000   15.2970   53.7350 O.3   154  THR154     -0.2211
     49  CG2       32.4330   16.4040   53.7060 C.3   154  THR154      0.0376
     50  N         31.0890   15.4060   50.7820 N.am  155  SER155     -0.1937
     51  CA        30.0490   16.0170   49.9500 C.3   155  SER155      0.2055
     52  C         29.0700   16.8970   50.7140 C.2   155  SER155      0.2644
     53  O         28.6600   17.9430   50.2010 O.2   155  SER155     -0.2714
     54  CB        29.2700   14.9230   49.1920 C.3   155  SER155      0.2130
     55  OG        28.1570   15.4290   48.4490 O.3   155  SER155     -0.2179
     56  N         28.6720   16.4850   51.9150 N.am  156  GLY156     -0.1939
     57  CA        27.5640   17.1670   52.5670 C.3   156  GLY156      0.2014
     58  C         27.1780   16.5130   53.8590 C.2   156  GLY156      0.2639
     59  O         27.8240   15.5680   54.3000 O.2   156  GLY156     -0.2714
     60  N         26.1310   17.0250   54.4880 N.am  157  GLY157     -0.1939
     61  CA        25.6520   16.3580   55.6850 C.3   157  GLY157      0.2014
     62  C         24.8500   17.3240   56.4990 C.2   157  GLY157      0.2640
     63  O         24.4560   18.3830   56.0080 O.2   157  GLY157     -0.2714
     64  N         24.5920   16.9630   57.7490 N.am  158  THR158     -0.1936
     65  CA        23.7820   17.8170   58.6210 C.3   158  THR158      0.2028
     66  C         24.3970   17.8570   60.0020 C.2   158  THR158      0.2642
     67  O         25.0730   16.9100   60.3920 O.2   158  THR158     -0.2714
     68  CB        22.3130   17.3570   58.7090 C.3   158  THR158      0.1808
     69  OG1       21.5590   18.3570   59.4040 O.3   158  THR158     -0.2208
     70  CG2       22.1870   16.0290   59.4450 C.3   158  THR158      0.0379
     71  N         24.1740   18.9440   60.7290 N.am  159  GLY159     -0.1954
     72  CA        24.6780   19.0650   62.0830 C.3   159  GLY159      0.1869
     73  C         26.0430   19.7140   62.0960 C.2   159  GLY159      0.2309
     74  O         26.3810   20.5090   61.2110 O.2   159  GLY159     -0.2863
     75  N         27.3130   12.6680   57.8670 N.3   167  THR167     -0.1218
     76  CA        28.0530   13.2290   56.7460 C.3   167  THR167      0.1862
     77  C         28.0800   12.2350   55.6350 C.2   167  THR167      0.2287
     78  O         28.2740   11.0470   55.8720 O.2   167  THR167     -0.2866
     79  CB        29.4920   13.4230   57.1470 C.3   167  THR167      0.1770
     80  OG1       29.8700   12.1900   57.7920 O.3   167  THR167     -0.2211
     81  CG2       29.6130   14.6220   58.0520 C.3   167  THR167      0.0375
@<TRIPOS>BOND
     1     1     2    1
     2     2     3    1
     3     2     5    1
     4     3     4    2
     5     5     6    1
     6     6     7   ar
     7     6     8   ar
     8     7     9   ar
     9     8    10   ar
    10    55    54    1
    11     9    10   ar
    12    54    51    1
    13    51    52    1
    14    51    50    1
    15    46    45    2
    16    53    52    2
    17    52    56   am
    18    50    45   am
    19    45    44    1
    20    40    39    2
    21    43    44    1
    22    39    38    1
    23    41    38    1
    24    41    42    1
    25    44    47    1
    26    56    57    1
    27    38    37    1
    28    57    58    1
    29    47    49    1
    30    47    48    1
    31    37    31   am
    32    32    31    2
    33    58    59    2
    34    58    60   am
    35    31    30    1
    36    60    61    1
    37    30    29    1
    38    30    33    1
    39    77    78    2
    40    77    76    1
    41    61    62    1
    42    63    62    2
    43    27    26    1
    44    27    28    2
    45    26    25    1
    46    33    34    1
    47    62    64   am
    48    76    79    1
    49    76    75    1
    50    19    18    2
    51    79    80    1
    52    79    81    1
    53    25    18   am
    54    64    65    1
    55    18    17    1
    56    34    35   ar
    57    34    36   ar
    58    15    12    1
    59    65    68    1
    60    65    66    1
    61    68    69    1
    62    68    70    1
    63    17    16    1
    64    17    20    1
    65    16    13   am
    66    12    13    1
    67    12    11    1
    68    13    14    2
    69    66    67    2
    70    66    71   am
    71    20    21    1
    72    71    72    1
    73    74    73    2
    74    21    22    1
    75    72    73    1
    76    23    22   ar
    77    22    24   ar
