@<TRIPOS>MOLECULE
tmp/2pfgA01.pdb
 126 123 0 0 0
SMALL
GASTEIGER

@<TRIPOS>ATOM
      1  N         -1.2090   16.0890   32.1000 N.3    91  ALA91      -0.1231
      2  CA        -1.0530   17.2610   31.2320 C.3    91  ALA91       0.1694
      3  C         -2.4010   18.0080   31.1990 C.2    91  ALA91       0.2592
      4  O         -3.4310   17.4390   31.6480 O.2    91  ALA91      -0.2718
      5  CB        -0.6570   16.8510   29.8310 C.3    91  ALA91       0.0304
      6  N         -2.3860   19.2410   30.7150 N.am   92  PHE92      -0.1962
      7  CA        -3.6310   19.9530   30.4480 C.3    92  PHE92       0.1771
      8  C         -3.9480   19.8170   28.9390 C.2    92  PHE92       0.2619
      9  O         -3.0880   19.7210   28.1030 O.2    92  PHE92      -0.2715
     10  CB        -3.4540   21.4000   30.8770 C.3    92  PHE92       0.0574
     11  CG        -3.5060   21.5460   32.3930 C.ar   92  PHE92      -0.0200
     12  CD1       -2.4040   21.2330   33.1820 C.ar   92  PHE92      -0.0042
     13  CD2       -4.7080   21.9220   33.0150 C.ar   92  PHE92      -0.0042
     14  CE1       -2.4480   21.3500   34.5520 C.ar   92  PHE92      -0.0003
     15  CE2       -4.7660   22.0450   34.4210 C.ar   92  PHE92      -0.0003
     16  CZ        -3.6330   21.7720   35.2000 C.ar   92  PHE92      -0.0000
     17  N         -5.2000   19.9430   28.5890 N.am   93  LYS93      -0.1963
     18  CA        -5.6200   19.7700   27.1910 C.3    93  LYS93       0.1728
     19  C         -5.1070   20.9130   26.3510 C.2    93  LYS93       0.2616
     20  O         -4.8010   21.9950   26.8750 O.2    93  LYS93      -0.2715
     21  CB        -7.1890   19.7300   27.1690 C.3    93  LYS93       0.0311
     22  CG        -7.8450   18.5740   27.7820 C.3    93  LYS93       0.0038
     23  CD        -6.9710   17.4150   27.7760 C.3    93  LYS93       0.0206
     24  CE        -7.1670   16.6680   26.4740 C.3    93  LYS93       0.1093
     25  NZ        -7.5790   15.3000   26.9600 N.3    93  LYS93      -0.1314
     26  N         -5.0400   20.6920   25.0310 N.am   94  VAL94      -0.1963
     27  CA        -4.7260   21.7940   24.1200 C.3    94  VAL94       0.1727
     28  C         -5.6880   22.9650   24.3760 C.2    94  VAL94       0.2616
     29  O         -6.8770   22.7850   24.4940 O.2    94  VAL94      -0.2715
     30  CB        -4.8890   21.3070   22.6560 C.3    94  VAL94       0.0290
     31  CG1       -4.7280   22.4870   21.6300 C.3    94  VAL94       0.0023
     32  CG2       -3.8190   20.2510   22.4020 C.3    94  VAL94       0.0023
     33  N         -5.1190   24.1830   24.4700 N.am   95  ALA95      -0.1977
     34  CA        -5.9590   25.4170   24.6070 C.3    95  ALA95       0.1597
     35  C         -6.7150   25.4470   25.9450 C.2    95  ALA95       0.2287
     36  O         -7.6210   26.2430   26.1010 O.2    95  ALA95      -0.2864
     37  CB        -6.9130   25.5860   23.3420 C.3    95  ALA95       0.0319
     38  N          8.9840   13.1870   26.7110 N.3   136  SER136     -0.1202
     39  CA         8.1810   13.6090   25.5540 C.3   136  SER136      0.2020
     40  C          9.0030   14.4650   24.6410 C.2   136  SER136      0.2619
     41  O          9.8560   15.2260   25.1110 O.2   136  SER136     -0.2717
     42  CB         6.9990   14.5150   26.0080 C.3   136  SER136      0.2103
     43  OG         6.2990   15.0450   24.8700 O.3   136  SER136     -0.2182
     44  N          8.6930   14.3800   23.3430 N.am  137  ILE137     -0.1965
     45  CA         9.3470   15.3070   22.3730 C.3   137  ILE137      0.1727
     46  C          8.9200   16.7860   22.7110 C.2   137  ILE137      0.2616
     47  O          9.6290   17.7490   22.2810 O.2   137  ILE137     -0.2715
     48  CB         9.0290   14.9140   20.9170 C.3   137  ILE137      0.0290
     49  CG1       10.1020   15.5200   20.0320 C.3   137  ILE137      0.0022
     50  CG2        7.6320   15.4050   20.5760 C.3   137  ILE137      0.0023
     51  CD1       11.5250   14.6520   20.2020 C.3   137  ILE137      0.0001
     52  N          7.8950   16.9990   23.5740 N.am  138  MET138     -0.1977
     53  CA         7.5780   18.4110   23.9740 C.3   138  MET138      0.1605
     54  C          8.7960   18.9530   24.8020 C.2   138  MET138      0.2287
     55  O          8.9350   20.1650   24.9060 O.2   138  MET138     -0.2864
     56  CB         6.3330   18.4310   24.9100 C.3   138  MET138      0.0413
     57  CG         5.0120   18.0720   24.1620 C.3   138  MET138      0.0598
     58  SD         4.6130   19.1550   22.7640 S.3   138  MET138     -0.1393
     59  CE         5.4980   18.3140   21.3950 C.3   138  MET138      0.0692
     60  N         10.9850   20.9620   22.2060 N.3   141  ARG141     -0.1245
     61  CA        10.3960   22.2360   21.9030 C.3   141  ARG141      0.1563
     62  C         10.6190   23.2010   23.0860 C.2   141  ARG141      0.2260
     63  O         10.9710   24.3920   22.8970 O.2   141  ARG141     -0.2867
     64  CB         8.8870   21.9410   21.7250 C.3   141  ARG141      0.0307
     65  CG         7.9150   23.1220   21.7150 C.3   141  ARG141      0.0489
     66  CD         6.4270   22.6910   21.6440 C.3   141  ARG141      0.2205
     67  NE         5.4940   23.8530   21.6900 N.pl3 141  ARG141     -0.0865
     68  CZ         4.2000   23.7270   22.0730 C.cat 141  ARG141      0.5346
     69  NH1        3.6470   22.4820   22.3770 N.pl3 141  ARG141      0.1354
     70  NH2        3.4250   24.8580   22.1470 N.pl3 141  ARG141      0.1354
     71  N          5.6030   26.3050   27.5890 N.3   188  SER188     -0.1217
     72  CA         4.8270   25.0600   27.8370 C.3   188  SER188      0.1889
     73  C          5.2130   24.5200   29.2250 C.2   188  SER188      0.2288
     74  O          6.3180   24.0510   29.4520 O.2   188  SER188     -0.2866
     75  CB         4.9840   23.9190   26.8110 C.3   188  SER188      0.2089
     76  OG         4.3430   22.7070   27.3220 O.3   188  SER188     -0.2183
     77  N          3.9640   21.7990   30.7690 N.3   190  TYR190     -0.1241
     78  CA         4.2250   20.3250   30.6740 C.3   190  TYR190      0.1605
     79  C          5.6060   20.1000   30.0620 C.2   190  TYR190      0.2264
     80  O          6.3380   19.2150   30.5170 O.2   190  TYR190     -0.2867
     81  CB         3.1100   19.7820   29.7450 C.3   190  TYR190      0.0534
     82  CG         3.3240   18.4000   29.2830 C.ar  190  TYR190     -0.0201
     83  CD1        2.8180   17.3040   30.0380 C.ar  190  TYR190     -0.0009
     84  CD2        3.9540   18.1430   28.0320 C.ar  190  TYR190     -0.0009
     85  CE1        2.9720   15.9740   29.5770 C.ar  190  TYR190      0.0417
     86  CE2        4.0620   16.8420   27.5350 C.ar  190  TYR190      0.0417
     87  CZ         3.5380   15.7430   28.2990 C.ar  190  TYR190      0.1957
     88  OH         3.6130   14.4380   27.7990 O.3   190  TYR190     -0.2866
     89  N          6.0230    9.0820   21.1830 N.3   225  GLY225     -0.1210
     90  CA         5.2960    9.6370   20.0340 C.3   225  GLY225      0.1956
     91  C          3.9170   10.0840   20.4170 C.2   225  GLY225      0.2612
     92  O          3.5290   10.0630   21.6280 O.2   225  GLY225     -0.2717
     93  N          3.1580   10.5560   19.4220 N.am  226  TRP226     -0.1962
     94  CA         1.8290   11.1170   19.7050 C.3   226  TRP226      0.1771
     95  C          0.8370    9.9420   19.6560 C.2   226  TRP226      0.2619
     96  O          0.6820    9.2950   18.6020 O.2   226  TRP226     -0.2715
     97  CB         1.5560   12.1390   18.5680 C.3   226  TRP226      0.0590
     98  CG         0.2540   12.9020   18.7460 C.ar  226  TRP226      0.0006
     99  CD1       -0.4380   13.1370   19.9360 C.ar  226  TRP226      0.0946
    100  CD2       -0.4410   13.5880   17.7010 C.ar  226  TRP226      0.0152
    101  NE1       -1.5650   13.9350   19.6520 N.ar  226  TRP226     -0.2442
    102  CE2       -1.5940   14.2170   18.2940 C.ar  226  TRP226      0.0810
    103  CE3       -0.1800   13.7610   16.3210 C.ar  226  TRP226      0.0012
    104  CZ2       -2.5070   14.9580   17.5670 C.ar  226  TRP226      0.0191
    105  CZ3       -1.1460   14.5130   15.5590 C.ar  226  TRP226      0.0001
    106  CH2       -2.3030   15.0700   16.1980 C.ar  226  TRP226      0.0015
    107  N          0.1730    9.6660   20.7870 N.am  227  VAL227     -0.1977
    108  CA        -0.5600    8.4100   20.9720 C.3   227  VAL227      0.1596
    109  C         -1.9910    8.6940   21.3950 C.2   227  VAL227      0.2287
    110  O         -2.2620    9.5990   22.2030 O.2   227  VAL227     -0.2864
    111  CB         0.1500    7.5340   22.1240 C.3   227  VAL227      0.0276
    112  CG1       -0.5360    6.1860   22.2450 C.3   227  VAL227      0.0022
    113  CG2        1.6050    7.4110   21.8430 C.3   227  VAL227      0.0022
    114  N         -4.8670   11.5060   27.3580 N.3   231  MET231     -0.1230
    115  CA        -4.0360   12.7200   27.3780 C.3   231  MET231      0.1702
    116  C         -4.1290   13.4850   26.0560 C.2   231  MET231      0.2592
    117  O         -3.9690   14.7230   26.0170 O.2   231  MET231     -0.2718
    118  CB        -2.5570   12.3700   27.7620 C.3   231  MET231      0.0401
    119  CG        -1.6800   13.5750   27.8050 C.3   231  MET231      0.0596
    120  SD        -0.0430   13.2480   28.2930 S.3   231  MET231     -0.1393
    121  CE        -0.2120   12.7920   30.0220 C.3   231  MET231      0.0692
    122  N         -4.2580   12.7600   24.9630 N.am  232  ALA232     -0.1980
    123  CA        -4.1400   13.3240   23.6220 C.3   232  ALA232      0.1597
    124  C         -5.5450   13.2620   23.0620 C.2   232  ALA232      0.2287
    125  O         -6.4280   13.9480   23.6460 O.2   232  ALA232     -0.2864
    126  CB        -3.1090   12.5630   22.8390 C.3   232  ALA232      0.0319
@<TRIPOS>BOND
     1   105   106   ar
     2   105   103   ar
     3   106   104   ar
     4   103   100   ar
     5   104   102   ar
     6   100   102   ar
     7   100    98   ar
     8   102   101   ar
     9    97    98    1
    10    97    94    1
    11    96    95    2
    12    98    99   ar
    13    93    94    1
    14    93    91   am
    15   101    99   ar
    16    95    94    1
    17    95   107   am
    18    49    51    1
    19    49    48    1
    20    90    91    1
    21    90    89    1
    22    91    92    2
    23    50    48    1
    24   107   108    1
    25    48    45    1
    26   108   109    1
    27   108   111    1
    28   109   110    2
    29    59    58    1
    30    31    30    1
    31    66    67    1
    32    66    65    1
    33    67    68    2
    34    65    64    1
    35    64    61    1
    36   113   111    1
    37    61    60    1
    38    61    62    1
    39    68    70    1
    40    68    69    1
    41   111   112    1
    42    47    46    2
    43    45    46    1
    44    45    44    1
    45    32    30    1
    46    30    27    1
    47    46    52   am
    48    58    57    1
    49   126   123    1
    50    63    62    2
    51   124   123    1
    52   124   125    2
    53    37    34    1
    54    44    40   am
    55    52    53    1
    56   123   122    1
    57    53    54    1
    58    53    56    1
    59    27    28    1
    60    27    26    1
    61    57    56    1
    62    28    33   am
    63    28    29    2
    64    33    34    1
    65    34    35    1
    66    40    41    2
    67    40    39    1
    68    54    55    2
    69    43    42    1
    70   122   116   am
    71    26    19   am
    72    39    42    1
    73    39    38    1
    74    35    36    2
    75   117   116    2
    76   116   115    1
    77    19    20    2
    78    19    18    1
    79    24    25    1
    80    24    23    1
    81    75    76    1
    82    75    72    1
    83    21    18    1
    84    21    22    1
    85    18    17    1
    86   114   115    1
    87   115   118    1
    88    86    84   ar
    89    86    87   ar
    90    71    72    1
    91   118   119    1
    92    23    22    1
    93    88    87    1
    94   119   120    1
    95    72    73    1
    96    84    82   ar
    97     9     8    2
    98   120   121    1
    99    87    85   ar
   100    17     8   am
   101     8     7    1
   102    73    74    2
   103    82    81    1
   104    82    83   ar
   105    85    83   ar
   106    81    78    1
   107     5     2    1
   108    79    80    2
   109    79    78    1
   110     7     6    1
   111     7    10    1
   112    78    77    1
   113     6     3   am
   114    10    11    1
   115     3     2    1
   116     3     4    2
   117     2     1    1
   118    11    13   ar
   119    11    12   ar
   120    13    15   ar
   121    12    14   ar
   122    15    16   ar
   123    14    16   ar
