@<TRIPOS>MOLECULE
tmp/2pfoD01.pdb
 135 128 0 0 0
SMALL
GASTEIGER

@<TRIPOS>ATOM
      1  N         26.6850   21.0690    8.2240 N.3   134  ARG134     -0.1245
      2  CA        26.4140   22.0430    9.2710 C.3   134  ARG134      0.1563
      3  C         27.3860   23.1750    8.9870 C.2   134  ARG134      0.2260
      4  O         28.5170   22.9300    8.5690 O.2   134  ARG134     -0.2867
      5  CB        26.6770   21.4400   10.6530 C.3   134  ARG134      0.0307
      6  CG        25.8030   20.2290   10.9730 C.3   134  ARG134      0.0489
      7  CD        26.0420   19.7400   12.3890 C.3   134  ARG134      0.2205
      8  NE        25.7020   20.7520   13.3890 N.pl3 134  ARG134     -0.0865
      9  CZ        24.4630   21.0600   13.7590 C.cat 134  ARG134      0.5346
     10  NH1       23.4310   20.4280   13.2150 N.pl3 134  ARG134      0.1354
     11  NH2       24.2540   22.0100   14.6670 N.pl3 134  ARG134      0.1354
     12  N         17.6940   28.5200   18.0180 N.3   164  GLY164     -0.1210
     13  CA        18.1340   27.1580   17.7830 C.3   164  GLY164      0.1956
     14  C         19.5390   26.8940   18.2930 C.2   164  GLY164      0.2612
     15  O         19.9790   27.4980   19.2740 O.2   164  GLY164     -0.2717
     16  N         20.2460   25.9980   17.6140 N.am  165  SER165     -0.1952
     17  CA        21.6060   25.6240   17.9830 C.3   165  SER165      0.1924
     18  C         22.5420   26.8200   18.1590 C.2   165  SER165      0.2314
     19  O         23.4820   26.7760   18.9620 O.2   165  SER165     -0.2863
     20  CB        22.1850   24.6820   16.9280 C.3   165  SER165      0.2116
     21  OG        22.2070   25.3170   15.6640 O.3   165  SER165     -0.2180
     22  N         22.2000   28.2800   21.5220 N.3   168  ARG168     -0.1245
     23  CA        22.6760   27.3160   22.5070 C.3   168  ARG168      0.1563
     24  C         24.2080   27.2550   22.4900 C.2   168  ARG168      0.2260
     25  O         24.8130   26.4480   23.1900 O.2   168  ARG168     -0.2867
     26  CB        22.0720   25.9220   22.2650 C.3   168  ARG168      0.0307
     27  CG        20.5400   25.8620   22.4460 C.3   168  ARG168      0.0489
     28  CD        20.0520   24.4560   22.8370 C.3   168  ARG168      0.2205
     29  NE        20.4750   23.4250   21.8960 N.pl3 168  ARG168     -0.0865
     30  CZ        20.0410   23.3230   20.6410 C.cat 168  ARG168      0.5346
     31  NH1       19.1560   24.1890   20.1590 N.pl3 168  ARG168      0.1354
     32  NH2       20.5100   22.3590   19.8560 N.pl3 168  ARG168      0.1354
     33  N         23.0930   23.5350   11.8240 N.3   174  GLY174     -0.1210
     34  CA        22.4640   22.8890   10.6830 C.3   174  GLY174      0.1956
     35  C         21.7670   23.9180    9.8130 C.2   174  GLY174      0.2611
     36  O         21.6760   23.7730    8.5900 O.2   174  GLY174     -0.2717
     37  N         21.2580   24.9620   10.4570 N.am  175  ASP175     -0.1973
     38  CA        20.5850   26.0510    9.7620 C.3   175  ASP175      0.1709
     39  C         20.6160   27.2720   10.6730 C.2   175  ASP175      0.2293
     40  O         21.2140   27.2440   11.7540 O.2   175  ASP175     -0.2864
     41  CB        19.1240   25.6890    9.4610 C.3   175  ASP175      0.1436
     42  CG        18.2510   25.6420   10.7150 C.2   175  ASP175      0.3671
     43  OD1       17.0110   25.5380   10.5640 O.co2 175  ASP175     -0.2456
     44  OD2       18.7830   25.7030   11.8510 O.co2 175  ASP175     -0.2456
     45  N         18.0240   29.8050   12.5910 N.3   177  ASP177     -0.1239
     46  CA        16.6470   30.0570   13.0080 C.3   177  ASP177      0.1674
     47  C         16.5410   31.4680   13.5710 C.2   177  ASP177      0.2266
     48  O         16.9830   31.7440   14.6900 O.2   177  ASP177     -0.2867
     49  CB        16.2590   29.0460   14.0660 C.3   177  ASP177      0.1410
     50  CG        16.4690   27.6350   13.5930 C.2   177  ASP177      0.3668
     51  OD1       15.6800   27.2010   12.7290 O.co2 177  ASP177     -0.2456
     52  OD2       17.4290   26.9900   14.0690 O.co2 177  ASP177     -0.2456
     53  N         15.4160   29.4420    8.5540 N.3   238  ASP238     -0.1239
     54  CA        14.0770   29.4360    9.1280 C.3   238  ASP238      0.1674
     55  C         13.8300   30.7970    9.7770 C.2   238  ASP238      0.2266
     56  O         14.7160   31.3710   10.4040 O.2   238  ASP238     -0.2867
     57  CB        13.9190   28.3450   10.1960 C.3   238  ASP238      0.1410
     58  CG        13.9890   26.9380    9.6260 C.2   238  ASP238      0.3668
     59  OD1       13.8590   26.7730    8.3910 O.co2 238  ASP238     -0.2456
     60  OD2       14.1660   25.9910   10.4250 O.co2 238  ASP238     -0.2456
     61  N         10.9090   28.2970   22.7970 N.3   253  TYR253     -0.1227
     62  CA        10.6470   27.2760   21.7920 C.3   253  TYR253      0.1736
     63  C         11.7350   27.2240   20.7150 C.2   253  TYR253      0.2595
     64  O         12.3520   26.1800   20.4940 O.2   253  TYR253     -0.2718
     65  CB         9.2990   27.5350   21.1120 C.3   253  TYR253      0.0548
     66  CG         9.2220   26.9700   19.7040 C.ar  253  TYR253     -0.0200
     67  CD1        9.1260   25.5930   19.4840 C.ar  253  TYR253     -0.0009
     68  CD2        9.2750   27.8130   18.5960 C.ar  253  TYR253     -0.0009
     69  CE1        9.0820   25.0670   18.1850 C.ar  253  TYR253      0.0417
     70  CE2        9.2320   27.3050   17.2930 C.ar  253  TYR253      0.0417
     71  CZ         9.1320   25.9370   17.0950 C.ar  253  TYR253      0.1957
     72  OH         9.0660   25.4420   15.8150 O.3   253  TYR253     -0.2866
     73  N         11.9530   28.3560   20.0470 N.am  254  PHE254     -0.1962
     74  CA        12.9190   28.4290   18.9570 C.3   254  PHE254      0.1771
     75  C         14.3610   28.1570   19.3640 C.2   254  PHE254      0.2620
     76  O         15.2000   27.8560   18.5080 O.2   254  PHE254     -0.2715
     77  CB        12.8280   29.7880   18.2570 C.3   254  PHE254      0.0574
     78  CG        12.8160   29.7030   16.7460 C.ar  254  PHE254     -0.0200
     79  CD1       13.1750   30.8060   15.9750 C.ar  254  PHE254     -0.0042
     80  CD2       12.4320   28.5260   16.0960 C.ar  254  PHE254     -0.0042
     81  CE1       13.1540   30.7470   14.5850 C.ar  254  PHE254     -0.0003
     82  CE2       12.4070   28.4520   14.7030 C.ar  254  PHE254     -0.0003
     83  CZ        12.7680   29.5620   13.9420 C.ar  254  PHE254     -0.0000
     84  N         14.6510   28.2570   20.6600 N.am  255  THR255     -0.1937
     85  CA        15.9990   28.0010   21.1590 C.3   255  THR255      0.2028
     86  C         16.2040   26.5040   21.4320 C.2   255  THR255      0.2643
     87  O         17.3140   25.9900   21.3120 O.2   255  THR255     -0.2714
     88  CB        16.2750   28.8210   22.4510 C.3   255  THR255      0.1808
     89  OG1       16.3290   30.2180   22.1270 O.3   255  THR255     -0.2208
     90  CG2       17.5860   28.4090   23.0830 C.3   255  THR255      0.0379
     91  N         15.1350   25.8030   21.7960 N.am  256  GLY256     -0.1939
     92  CA        15.2490   24.3720   22.0460 C.3   256  GLY256      0.2014
     93  C         16.2230   24.0080   23.1510 C.2   256  GLY256      0.2640
     94  O         16.4250   24.8060   24.0670 O.2   256  GLY256     -0.2714
     95  N         16.8550   22.8320   23.0790 N.am  257  SER257     -0.1935
     96  CA        16.6980   21.8650   21.9900 C.3   257  SER257      0.2055
     97  C         15.2980   21.2690   21.8510 C.2   257  SER257      0.2642
     98  O         14.3940   21.5660   22.6340 O.2   257  SER257     -0.2714
     99  CB        17.6790   20.7130   22.1840 C.3   257  SER257      0.2130
    100  OG        17.2590   19.8950   23.2660 O.3   257  SER257     -0.2179
    101  N         15.1380   20.4070   20.8520 N.am  258  ALA258     -0.1977
    102  CA        13.8630   19.7570   20.6060 C.3   258  ALA258      0.1597
    103  C         13.4880   18.8680   21.7880 C.2   258  ALA258      0.2287
    104  O         12.3740   18.9690   22.3200 O.2   258  ALA258     -0.2864
    105  CB        13.9300   18.9230   19.3120 C.3   258  ALA258      0.0319
    106  N         12.4450   20.9670   24.7410 N.3   261  ASN261     -0.1225
    107  CA        11.0800   21.4820   24.7030 C.3   261  ASN261      0.1785
    108  C         10.0840   20.3820   25.0430 C.2   261  ASN261      0.2597
    109  O          9.1300   20.6040   25.7860 O.2   261  ASN261     -0.2718
    110  CB        10.7380   22.0520   23.3210 C.3   261  ASN261      0.1169
    111  CG        11.4720   23.3370   23.0170 C.2   261  ASN261      0.2627
    112  OD1       11.8800   24.0630   23.9210 O.2   261  ASN261     -0.2716
    113  ND2       11.6290   23.6380   21.7310 N.am  261  ASN261     -0.0877
    114  N         10.3000   19.1950   24.4860 N.am  262  ARG262     -0.1979
    115  CA         9.4010   18.0770   24.7440 C.3   262  ARG262      0.1597
    116  C          9.3230   17.7520   26.2390 C.2   262  ARG262      0.2287
    117  O          8.2370   17.5850   26.7820 O.2   262  ARG262     -0.2864
    118  CB         9.8500   16.8510   23.9370 C.3   262  ARG262      0.0334
    119  CG         9.7750   17.0890   22.4180 C.3   262  ARG262      0.0492
    120  CD        10.2820   15.9140   21.5820 C.3   262  ARG262      0.2205
    121  NE         9.3460   14.7930   21.5570 N.pl3 262  ARG262     -0.0865
    122  CZ         9.3820   13.8200   20.6530 C.cat 262  ARG262      0.5346
    123  NH1       10.3090   13.8340   19.7070 N.pl3 262  ARG262      0.1354
    124  NH2        8.4830   12.8440   20.6790 N.pl3 262  ARG262      0.1354
    125  N          7.5730   20.5970   28.0560 N.3   265  ARG265     -0.1245
    126  CA         6.1470   20.5630   27.7670 C.3   265  ARG265      0.1563
    127  C          5.4850   19.3740   28.4650 C.2   265  ARG265      0.2260
    128  O          4.3600   19.4830   28.9530 O.2   265  ARG265     -0.2867
    129  CB         5.9220   20.5070   26.2480 C.3   265  ARG265      0.0307
    130  CG         6.4010   21.7730   25.5460 C.3   265  ARG265      0.0489
    131  CD         6.3160   21.7110   24.0180 C.3   265  ARG265      0.2205
    132  NE         6.7980   22.9680   23.4470 N.pl3 265  ARG265     -0.0865
    133  CZ         6.4400   23.4490   22.2610 C.cat 265  ARG265      0.5346
    134  NH1        5.5930   22.7760   21.4990 N.pl3 265  ARG265      0.1354
    135  NH2        6.9070   24.6220   21.8510 N.pl3 265  ARG265      0.1354
@<TRIPOS>BOND
     1     1     2    1
     2    59    58   ar
     3    53    54    1
     4     4     3    2
     5    36    35    2
     6     3     2    1
     7    54    55    1
     8    54    57    1
     9     2     5    1
    10    41    38    1
    11    41    42    1
    12    58    57    1
    13    58    60   ar
    14    38    37    1
    15    38    39    1
    16    55    56    2
    17    35    37   am
    18    35    34    1
    19    43    42   ar
    20     5     6    1
    21    39    40    2
    22    34    33    1
    23    42    44   ar
    24     6     7    1
    25     7     8    1
    26    45    46    1
    27    51    50   ar
    28    46    47    1
    29    46    49    1
    30    10     9    1
    31     8     9    2
    32    47    48    2
    33    50    49    1
    34    50    52   ar
    35     9    11    1
    36    83    81   ar
    37    83    82   ar
    38    81    79   ar
    39    82    80   ar
    40    21    20    1
    41    72    71    1
    42    79    78   ar
    43    80    78   ar
    44    78    77    1
    45    20    17    1
    46    71    70   ar
    47    71    69   ar
    48    70    68   ar
    49    16    17    1
    50    16    14   am
    51    13    12    1
    52    13    14    1
    53    17    18    1
    54    18    19    2
    55    69    67   ar
    56    77    74    1
    57    14    15    2
    58    76    75    2
    59    68    66   ar
    60    74    75    1
    61    74    73    1
    62   105   102    1
    63    75    84   am
    64    67    66   ar
    65    66    65    1
    66   123   122    1
    67    32    30    1
    68    73    63   am
    69    31    30    1
    70    64    63    2
    71   102   101    1
    72   102   103    1
    73    30    29    2
    74   122   124    1
    75   122   121    2
    76    84    85    1
    77    63    62    1
    78   101    97   am
    79    65    62    1
    80    85    86    1
    81    85    88    1
    82    87    86    2
    83    86    91   am
    84   134   133    1
    85    22    23    1
    86   121   120    1
    87   120   119    1
    88   113   111   am
    89   103   104    2
    90    62    61    1
    91    91    92    1
    92   135   133    1
    93    97    96    1
    94    97    98    2
    95    29    28    1
    96    96    99    1
    97    96    95    1
    98    92    93    1
    99    89    88    1
   100    99   100    1
   101   133   132    2
   102    26    27    1
   103    26    23    1
   104   119   118    1
   105    27    28    1
   106    88    90    1
   107    24    23    1
   108    24    25    2
   109   111   110    1
   110   111   112    2
   111    95    93   am
   112    93    94    2
   113   110   107    1
   114   132   131    1
   115   118   115    1
   116   131   130    1
   117   114   115    1
   118   114   108   am
   119   107   106    1
   120   107   108    1
   121   115   116    1
   122   108   109    2
   123   130   129    1
   124   116   117    2
   125   129   126    1
   126   126   125    1
   127   126   127    1
   128   127   128    2
