@<TRIPOS>MOLECULE
tmp/2pfrA00.pdb
 213 212 0 0 0
SMALL
GASTEIGER

@<TRIPOS>ATOM
      1  N          8.0880   51.4000   56.0750 N.3    37  PHE37      -0.1241
      2  CA         8.0590   50.4840   57.1960 C.3    37  PHE37       0.1605
      3  C          9.3770   50.6970   57.9170 C.2    37  PHE37       0.2264
      4  O         10.4380   50.5870   57.2880 O.2    37  PHE37      -0.2867
      5  CB         7.9920   49.0460   56.7160 C.3    37  PHE37       0.0534
      6  CG         7.8530   48.0590   57.8230 C.ar   37  PHE37      -0.0203
      7  CD1        6.6050   47.5400   58.1650 C.ar   37  PHE37      -0.0042
      8  CD2        8.9460   47.7230   58.6020 C.ar   37  PHE37      -0.0042
      9  CE1        6.4790   46.6390   59.2330 C.ar   37  PHE37      -0.0003
     10  CE2        8.8420   46.8330   59.6680 C.ar   37  PHE37      -0.0003
     11  CZ         7.6010   46.2960   59.9970 C.ar   37  PHE37      -0.0000
     12  N          6.0290   50.6480   62.0560 N.3    67  TRP67      -0.1227
     13  CA         5.6940   49.2140   61.8320 C.3    67  TRP67       0.1737
     14  C          4.1750   49.0400   61.7180 C.2    67  TRP67       0.2595
     15  O          3.4430   50.0440   61.7850 O.2    67  TRP67      -0.2718
     16  CB         6.3010   48.3160   62.9160 C.3    67  TRP67       0.0564
     17  CG         5.9070   48.5980   64.3350 C.ar   67  TRP67       0.0003
     18  CD1        4.8250   49.3680   64.8050 C.ar   67  TRP67       0.0946
     19  CD2        6.5420   48.0640   65.5010 C.ar   67  TRP67       0.0152
     20  NE1        4.7980   49.3400   66.1790 N.ar   67  TRP67      -0.2442
     21  CE2        5.8330   48.5600   66.6370 C.ar   67  TRP67       0.0810
     22  CE3        7.6680   47.2410   65.7050 C.ar   67  TRP67       0.0012
     23  CZ2        6.2300   48.2620   67.9520 C.ar   67  TRP67       0.0191
     24  CZ3        8.0450   46.9520   66.9810 C.ar   67  TRP67       0.0001
     25  CH2        7.3340   47.4610   68.0970 C.ar   67  TRP67       0.0015
     26  N          3.6900   47.8000   61.5160 N.am   68  CYS68      -0.1970
     27  CA         2.2980   47.5790   61.0750 C.3    68  CYS68       0.1712
     28  C          1.2570   48.2750   61.9860 C.2    68  CYS68       0.2296
     29  O          0.3190   48.9000   61.5050 O.2    68  CYS68      -0.2864
     30  CB         1.9890   46.0720   61.0170 C.3    68  CYS68       0.0983
     31  SG         2.3540   45.2390   62.6060 S.3    68  CYS68      -0.0798
     32  N          2.1010   36.3950   62.4620 N.3    93  PHE93      -0.1227
     33  CA         3.1440   36.4270   61.3980 C.3    93  PHE93       0.1736
     34  C          3.8670   35.1040   61.3050 C.2    93  PHE93       0.2595
     35  O          4.1440   34.4550   62.3270 O.2    93  PHE93      -0.2718
     36  CB         4.1150   37.5860   61.6300 C.3    93  PHE93       0.0547
     37  CG         4.3590   38.4330   60.3980 C.ar   93  PHE93      -0.0202
     38  CD1        3.4410   39.4030   60.0070 C.ar   93  PHE93      -0.0042
     39  CD2        5.4930   38.2600   59.6310 C.ar   93  PHE93      -0.0042
     40  CE1        3.6550   40.1800   58.8460 C.ar   93  PHE93      -0.0003
     41  CE2        5.7090   39.0410   58.4910 C.ar   93  PHE93      -0.0003
     42  CZ         4.7830   40.0070   58.1130 C.ar   93  PHE93      -0.0000
     43  N          4.1090   34.6610   60.0740 N.am   94  TYR94      -0.1962
     44  CA         4.9320   33.4810   59.8650 C.3    94  TYR94       0.1771
     45  C          6.3830   33.7600   60.2710 C.2    94  TYR94       0.2619
     46  O          6.9180   34.8500   60.0280 O.2    94  TYR94      -0.2715
     47  CB         4.8590   33.0610   58.4140 C.3    94  TYR94       0.0574
     48  CG         5.5470   31.7730   58.1610 C.ar   94  TYR94      -0.0198
     49  CD1        5.0370   30.6050   58.6740 C.ar   94  TYR94      -0.0009
     50  CD2        6.7310   31.7170   57.4060 C.ar   94  TYR94      -0.0009
     51  CE1        5.6650   29.3860   58.4500 C.ar   94  TYR94       0.0417
     52  CE2        7.3700   30.4920   57.1760 C.ar   94  TYR94       0.0417
     53  CZ         6.8240   29.3420   57.7000 C.ar   94  TYR94       0.1957
     54  OH         7.4110   28.1210   57.4860 O.3    94  TYR94      -0.2866
     55  N          6.9960   32.7800   60.9420 N.am   95  ILE95      -0.1977
     56  CA         8.3720   32.8930   61.4110 C.3    95  ILE95       0.1596
     57  C          9.2740   31.8400   60.6840 C.2    95  ILE95       0.2287
     58  O          9.4080   30.6900   61.1480 O.2    95  ILE95      -0.2864
     59  CB         8.4830   32.6900   62.9160 C.3    95  ILE95       0.0276
     60  CG1        7.4390   33.4920   63.7150 C.3    95  ILE95       0.0022
     61  CG2        9.9130   32.9780   63.3860 C.3    95  ILE95       0.0022
     62  CD1        7.3310   32.9890   65.1940 C.3    95  ILE95       0.0001
     63  N         12.5290   31.1210   60.3400 N.3    97  PRO97      -0.2102
     64  CA        13.5280   30.3720   61.1270 C.3    97  PRO97       0.1504
     65  C         13.0180   29.1570   61.9130 C.2    97  PRO97       0.2575
     66  O         13.7950   28.2200   62.1380 O.2    97  PRO97      -0.2718
     67  CB        14.0720   31.4320   62.0900 C.3    97  PRO97       0.0282
     68  CG        13.9580   32.7030   61.3110 C.3    97  PRO97       0.0208
     69  CD        12.6460   32.5710   60.5860 C.3    97  PRO97       0.0893
     70  N         11.7550   29.1490   62.3300 N.am   98  VAL98      -0.1980
     71  CA        11.1920   27.9730   63.0410 C.3    98  VAL98       0.1595
     72  C         10.0130   27.2740   62.3350 C.2    98  VAL98       0.2287
     73  O          9.4360   26.3390   62.8890 O.2    98  VAL98      -0.2864
     74  CB        10.8070   28.3430   64.4970 C.3    98  VAL98       0.0276
     75  CG1       12.0300   28.8870   65.2510 C.3    98  VAL98       0.0022
     76  CG2        9.6660   29.3460   64.5190 C.3    98  VAL98       0.0022
     77  N          6.9170   28.1830   61.7780 N.3   100  LYS100     -0.1231
     78  CA         5.6890   28.2830   62.5500 C.3   100  LYS100      0.1693
     79  C          5.1460   29.7000   62.4810 C.2   100  LYS100      0.2592
     80  O          5.8840   30.6330   62.1810 O.2   100  LYS100     -0.2718
     81  CB         5.9660   27.9700   64.0160 C.3   100  LYS100      0.0285
     82  CG         6.1870   26.4670   64.3380 C.3   100  LYS100      0.0035
     83  CD         6.5790   26.3230   65.8300 C.3   100  LYS100      0.0206
     84  CE         7.0500   24.8970   66.2060 C.3   100  LYS100      0.1093
     85  NZ         8.3090   24.9550   67.0320 N.3   100  LYS100     -0.1314
     86  N          3.8670   29.8510   62.7930 N.am  101  TYR101     -0.1962
     87  CA         3.2900   31.1990   63.0080 C.3   101  TYR101      0.1771
     88  C          3.4650   31.6630   64.4480 C.2   101  TYR101      0.2620
     89  O          3.5700   30.8460   65.3770 O.2   101  TYR101     -0.2715
     90  CB         1.8440   31.2220   62.5940 C.3   101  TYR101      0.0574
     91  CG         1.6230   30.9570   61.1250 C.ar  101  TYR101     -0.0198
     92  CD1        1.4470   31.9960   60.2300 C.ar  101  TYR101     -0.0009
     93  CD2        1.5490   29.6350   60.6310 C.ar  101  TYR101     -0.0009
     94  CE1        1.2210   31.7450   58.8660 C.ar  101  TYR101      0.0417
     95  CE2        1.3270   29.3730   59.2980 C.ar  101  TYR101      0.0417
     96  CZ         1.1790   30.4310   58.4120 C.ar  101  TYR101      0.1957
     97  OH         0.9560   30.1780   57.1090 O.3   101  TYR101     -0.2866
     98  N          3.5170   32.9820   64.6450 N.am  102  SER102     -0.1936
     99  CA         3.6200   33.5590   65.9820 C.3   102  SER102      0.2055
    100  C          2.4110   33.1340   66.8840 C.2   102  SER102      0.2644
    101  O          1.2770   32.9680   66.4030 O.2   102  SER102     -0.2714
    102  CB         3.6960   35.0950   65.9010 C.3   102  SER102      0.2130
    103  OG         2.4800   35.6200   65.4110 O.3   102  SER102     -0.2179
    104  N          2.7010   32.9410   68.1710 N.am  103  THR103     -0.1936
    105  CA         1.6800   32.7590   69.1930 C.3   103  THR103      0.2028
    106  C          0.8480   34.0290   69.3960 C.2   103  THR103      0.2642
    107  O         -0.3470   33.9650   69.5460 O.2   103  THR103     -0.2714
    108  CB         2.3230   32.2940   70.5300 C.3   103  THR103      0.1808
    109  OG1        3.0170   31.0590   70.2800 O.3   103  THR103     -0.2208
    110  CG2        1.2780   32.0420   71.5930 C.3   103  THR103      0.0379
    111  N          1.4980   35.1780   69.4070 N.am  104  GLY104     -0.1954
    112  CA         0.8060   36.4190   69.6400 C.3   104  GLY104      0.1869
    113  C          0.2610   37.0240   68.3700 C.2   104  GLY104      0.2309
    114  O          0.7840   36.7890   67.2750 O.2   104  GLY104     -0.2863
    115  N          0.5420   39.6060   66.5330 N.3   106  VAL106     -0.1231
    116  CA         1.5540   40.6570   66.4050 C.3   106  VAL106      0.1692
    117  C          1.3630   41.5400   65.1970 C.2   106  VAL106      0.2592
    118  O          2.1060   42.5020   65.0120 O.2   106  VAL106     -0.2718
    119  CB         3.0130   40.0520   66.3500 C.3   106  VAL106      0.0266
    120  CG1        3.3750   39.4180   67.6770 C.3   106  VAL106      0.0020
    121  CG2        3.1580   39.0620   65.2010 C.3   106  VAL106      0.0020
    122  N          0.3820   41.2270   64.3680 N.am  107  HIS107     -0.1976
    123  CA         0.1780   41.9570   63.1350 C.3   107  HIS107      0.1656
    124  C         -1.2040   42.6380   63.0840 C.2   107  HIS107      0.2291
    125  O         -2.2150   42.0280   63.3830 O.2   107  HIS107     -0.2864
    126  CB         0.4040   41.0490   61.9290 C.3   107  HIS107      0.0771
    127  CG         0.4760   41.7870   60.6350 C.ar  107  HIS107      0.0820
    128  ND1        1.3650   42.8150   60.4180 N.ar  107  HIS107     -0.2267
    129  CD2       -0.2450   41.6680   59.5030 C.ar  107  HIS107      0.1154
    130  CE1        1.1810   43.3000   59.2040 C.ar  107  HIS107      0.1986
    131  NE2        0.2280   42.6010   58.6210 N.ar  107  HIS107     -0.2212
    132  N          1.6860   47.6720   55.7520 N.3   124  GLY124     -0.1210
    133  CA         2.7730   47.4600   56.7400 C.3   124  GLY124      0.1956
    134  C          3.2890   46.0470   56.8700 C.2   124  GLY124      0.2612
    135  O          3.6770   45.6490   57.9630 O.2   124  GLY124     -0.2717
    136  N          3.3380   45.3070   55.7480 N.am  125  SER125     -0.1952
    137  CA         3.8270   43.8970   55.7240 C.3   125  SER125      0.1924
    138  C          5.3620   43.8300   55.7270 C.2   125  SER125      0.2314
    139  O          5.9540   42.8510   56.2060 O.2   125  SER125     -0.2863
    140  CB         3.3310   43.1240   54.4360 C.3   125  SER125      0.2116
    141  OG         2.0140   43.3590   54.0910 O.3   125  SER125     -0.2180
    142  N          5.0720   43.8810   73.9700 N.3   208  TYR208     -0.1227
    143  CA         5.8190   42.6470   73.7290 C.3   208  TYR208      0.1736
    144  C          6.9140   42.8140   72.6420 C.2   208  TYR208      0.2595
    145  O          8.0580   42.3710   72.8130 O.2   208  TYR208     -0.2718
    146  CB         4.8600   41.5690   73.2980 C.3   208  TYR208      0.0548
    147  CG         5.4480   40.1990   73.2330 C.ar  208  TYR208     -0.0200
    148  CD1        5.4820   39.3940   74.3720 C.ar  208  TYR208     -0.0009
    149  CD2        5.9330   39.6850   72.0260 C.ar  208  TYR208     -0.0009
    150  CE1        5.9960   38.1270   74.3240 C.ar  208  TYR208      0.0417
    151  CE2        6.4590   38.4400   71.9530 C.ar  208  TYR208      0.0417
    152  CZ         6.4690   37.6400   73.1210 C.ar  208  TYR208      0.1957
    153  OH         6.9590   36.3740   73.0950 O.3   208  TYR208     -0.2866
    154  N          6.5390   43.4430   71.5370 N.am  209  LEU209     -0.1980
    155  CA         7.4280   43.6120   70.4090 C.3   209  LEU209      0.1596
    156  C          8.5990   44.5720   70.7190 C.2   209  LEU209      0.2287
    157  O          9.5900   44.5690   70.0070 O.2   209  LEU209     -0.2864
    158  CB         6.6400   44.1200   69.2080 C.3   209  LEU209      0.0297
    159  CG         5.7310   43.1090   68.4900 C.3   209  LEU209      0.0022
    160  CD1        4.9440   43.9030   67.3950 C.3   209  LEU209      0.0001
    161  CD2        6.4920   41.9200   67.9000 C.3   209  LEU209      0.0001
    162  N         12.3150   37.4560   72.3110 N.3   214  THR214     -0.1203
    163  CA        11.9900   36.8190   71.0540 C.3   214  THR214      0.1994
    164  C         11.7850   37.8460   69.9090 C.2   214  THR214      0.2619
    165  O         11.6770   37.4480   68.7600 O.2   214  THR214     -0.2717
    166  CB        10.6710   35.9850   71.1150 C.3   214  THR214      0.1784
    167  OG1        9.5130   36.8640   71.1530 O.3   214  THR214     -0.2211
    168  CG2       10.6500   34.9900   72.2850 C.3   214  THR214      0.0376
    169  N         11.6550   39.1420   70.2340 N.am  215  SER215     -0.1937
    170  CA        11.3220   40.1430   69.2140 C.3   215  SER215      0.2055
    171  C         12.5180   40.4920   68.3100 C.2   215  SER215      0.2644
    172  O         13.5060   40.9970   68.7600 O.2   215  SER215     -0.2714
    173  CB        10.7740   41.4530   69.8280 C.3   215  SER215      0.2130
    174  OG        10.6250   42.4530   68.8100 O.3   215  SER215     -0.2179
    175  N         12.3700   40.2560   67.0150 N.am  216  SER216     -0.1935
    176  CA        13.4590   40.5560   66.0740 C.3   216  SER216      0.2055
    177  C         13.6670   42.0500   65.9250 C.2   216  SER216      0.2643
    178  O         14.7120   42.4880   65.4800 O.2   216  SER216     -0.2714
    179  CB        13.1770   39.8920   64.7450 C.3   216  SER216      0.2130
    180  OG        13.1410   38.4690   64.9260 O.3   216  SER216     -0.2179
    181  N         12.6580   42.8320   66.3180 N.am  217  PHE217     -0.1973
    182  CA        12.7370   44.2970   66.2180 C.3   217  PHE217      0.1639
    183  C         13.7360   44.8940   67.2020 C.2   217  PHE217      0.2290
    184  O         14.3000   45.9550   66.9550 O.2   217  PHE217     -0.2864
    185  CB        11.3530   44.9360   66.3810 C.3   217  PHE217      0.0560
    186  CG        10.3840   44.5510   65.2750 C.ar  217  PHE217     -0.0200
    187  CD1       10.6130   44.9610   63.9740 C.ar  217  PHE217     -0.0042
    188  CD2        9.2550   43.7340   65.5410 C.ar  217  PHE217     -0.0042
    189  CE1        9.7250   44.5750   62.9260 C.ar  217  PHE217     -0.0003
    190  CE2        8.3870   43.3710   64.5110 C.ar  217  PHE217     -0.0003
    191  CZ         8.6350   43.8220   63.1980 C.ar  217  PHE217     -0.0000
    192  N         19.7580   38.7620   62.7380 N.3   285  ASP285     -0.1239
    193  CA        20.1760   37.3660   62.5770 C.3   285  ASP285      0.1674
    194  C         19.4500   36.6530   61.4210 C.2   285  ASP285      0.2266
    195  O         19.3100   35.4130   61.4080 O.2   285  ASP285     -0.2867
    196  CB        19.9630   36.6170   63.9030 C.3   285  ASP285      0.1410
    197  CG        18.5080   36.5000   64.2760 C.2   285  ASP285      0.3668
    198  OD1       17.6380   37.0540   63.5670 O.co2 285  ASP285     -0.2456
    199  OD2       18.2270   35.8340   65.2670 O.co2 285  ASP285     -0.2456
    200  N         16.2560   37.1210   60.6820 N.3   287  SER287     -0.1202
    201  CA        14.8560   36.9620   61.0230 C.3   287  SER287      0.2020
    202  C         13.9400   37.8710   60.1730 C.2   287  SER287      0.2618
    203  O         12.8130   37.4990   59.8800 O.2   287  SER287     -0.2717
    204  CB        14.6150   37.2360   62.5210 C.3   287  SER287      0.2103
    205  OG        15.1650   36.2240   63.3510 O.3   287  SER287     -0.2182
    206  N         14.4200   39.0590   59.8410 N.am  288  LEU288     -0.1979
    207  CA        13.6740   39.9980   59.0100 C.3   288  LEU288      0.1596
    208  C         14.3470   40.0380   57.6260 C.2   288  LEU288      0.2287
    209  O         15.4910   40.4860   57.4830 O.2   288  LEU288     -0.2864
    210  CB        13.6480   41.3690   59.6590 C.3   288  LEU288      0.0297
    211  CG        13.1030   41.4570   61.0810 C.3   288  LEU288      0.0022
    212  CD1       13.2910   42.9120   61.6030 C.3   288  LEU288      0.0001
    213  CD2       11.6600   41.0120   61.1180 C.3   288  LEU288      0.0001
@<TRIPOS>BOND
     1   141   140    1
     2   140   137    1
     3   137   138    1
     4   137   136    1
     5   138   139    2
     6   136   134   am
     7   132   133    1
     8     1     2    1
     9     5     2    1
    10     5     6    1
    11   133   134    1
    12   134   135    2
    13    97    96    1
    14    52    50   ar
    15    52    53   ar
    16     2     3    1
    17     4     3    2
    18    50    48   ar
    19   209   208    2
    20    54    53    1
    21   208   207    1
    22    53    51   ar
    23     6     7   ar
    24     6     8   ar
    25    42    41   ar
    26    42    40   ar
    27    48    47    1
    28    48    49   ar
    29     7     9   ar
    30    96    94   ar
    31    96    95   ar
    32    47    44    1
    33    51    49   ar
    34    41    39   ar
    35     8    10   ar
    36   131   130   ar
    37   131   129   ar
    38    40    38   ar
    39    94    92   ar
    40   207   210    1
    41   207   206    1
    42   130   128   ar
    43     9    11   ar
    44    95    93   ar
    45   129   127   ar
    46    39    37   ar
    47   210   211    1
    48    10    11   ar
    49   206   202   am
    50    44    43    1
    51    44    45    1
    52   203   202    2
    53    38    37   ar
    54    46    45    2
    55    43    34   am
    56   202   201    1
    57    92    91   ar
    58    45    55   am
    59    63    69    1
    60    63    64    1
    61    37    36    1
    62   128   127   ar
    63    69    68    1
    64    93    91   ar
    65   127   126    1
    66   200   201    1
    67    57    58    2
    68    57    56    1
    69    55    56    1
    70    30    27    1
    71    30    31    1
    72   201   204    1
    73    27    26    1
    74    27    28    1
    75   211   213    1
    76   211   212    1
    77    91    90    1
    78    64    65    1
    79    64    67    1
    80    34    33    1
    81    34    35    2
    82    68    67    1
    83    33    36    1
    84    33    32    1
    85   195   194    2
    86    56    59    1
    87   194   193    1
    88    29    28    2
    89    26    14   am
    90    14    15    2
    91    14    13    1
    92    77    78    1
    93    13    12    1
    94    13    16    1
    95    65    66    2
    96    65    70   am
    97   126   123    1
    98    80    79    2
    99    70    71    1
   100    72    73    2
   101    72    71    1
   102    79    78    1
   103    79    86   am
   104   204   205    1
   105    78    81    1
   106   193   192    1
   107   193   196    1
   108    90    87    1
   109    86    87    1
   110    16    17    1
   111    59    61    1
   112    59    60    1
   113   189   191   ar
   114   189   187   ar
   115    87    88    1
   116    71    74    1
   117   124   123    1
   118   124   125    2
   119   123   122    1
   120   191   190   ar
   121   198   197   ar
   122    60    62    1
   123   196   197    1
   124   187   186   ar
   125    81    82    1
   126   197   199   ar
   127    17    18   ar
   128    17    19   ar
   129    82    83    1
   130   122   117   am
   131    88    98   am
   132    88    89    2
   133    74    76    1
   134    74    75    1
   135   190   188   ar
   136    98    99    1
   137   179   180    1
   138   179   176    1
   139    18    20   ar
   140   118   117    2
   141   117   116    1
   142   121   119    1
   143   186   188   ar
   144   186   185    1
   145   103   102    1
   146   178   177    2
   147    19    22   ar
   148    19    21   ar
   149    22    24   ar
   150    83    84    1
   151   102    99    1
   152   177   176    1
   153   177   181   am
   154    99   100    1
   155   176   175    1
   156    20    21   ar
   157    84    85    1
   158   182   181    1
   159   182   185    1
   160   182   183    1
   161   119   116    1
   162   119   120    1
   163   101   100    2
   164   116   115    1
   165    21    23   ar
   166   100   104   am
   167   184   183    2
   168    24    25   ar
   169   175   171   am
   170   114   113    2
   171   160   159    1
   172   161   159    1
   173    23    25   ar
   174   104   105    1
   175   171   172    2
   176   171   170    1
   177   113   112    1
   178   159   158    1
   179   165   164    2
   180   174   173    1
   181   105   106    1
   182   105   108    1
   183   158   155    1
   184   170   173    1
   185   170   169    1
   186   106   111   am
   187   106   107    2
   188   111   112    1
   189   164   169   am
   190   164   163    1
   191   157   156    2
   192   109   108    1
   193   155   156    1
   194   155   154    1
   195   108   110    1
   196   163   166    1
   197   163   162    1
   198   166   167    1
   199   166   168    1
   200   154   144   am
   201   151   149   ar
   202   151   152   ar
   203   149   147   ar
   204   144   145    2
   205   144   143    1
   206   153   152    1
   207   152   150   ar
   208   147   146    1
   209   147   148   ar
   210   146   143    1
   211   143   142    1
   212   150   148   ar
