@<TRIPOS>MOLECULE
tmp/2pfyA00.pdb
 99 93 0 0 0
SMALL
GASTEIGER

@<TRIPOS>ATOM
      1  N         50.9320  103.3300    9.6600 N.3    47  ARG47      -0.1245
      2  CA        50.0520  102.1970    9.9120 C.3    47  ARG47       0.1563
      3  C         49.0440  102.3990   11.0610 C.2    47  ARG47       0.2260
      4  O         47.8780  102.1390   10.8580 O.2    47  ARG47      -0.2867
      5  CB        50.8720  100.9210   10.1410 C.3    47  ARG47       0.0307
      6  CG        50.0670   99.6950   10.5340 C.3    47  ARG47       0.0489
      7  CD        50.9900   98.4530   10.6640 C.3    47  ARG47       0.2205
      8  NE        51.4240   97.9450    9.3610 N.pl3  47  ARG47      -0.0865
      9  CZ        52.5070   97.1870    9.1780 C.cat  47  ARG47       0.5346
     10  NH1       53.2640   96.8590   10.2260 N.pl3  47  ARG47       0.1354
     11  NH2       52.8450   96.7530    7.9600 N.pl3  47  ARG47       0.1354
     12  N         47.5570   97.1430    7.1160 N.3    65  LEU65      -0.1245
     13  CA        47.6140   95.8190    7.7010 C.3    65  LEU65       0.1561
     14  C         46.3520   95.6370    8.5390 C.2    65  LEU65       0.2260
     15  O         46.0700   96.4590    9.4290 O.2    65  LEU65      -0.2867
     16  CB        48.8590   95.7350    8.6090 C.3    65  LEU65       0.0270
     17  CG        49.1640   94.3790    9.2500 C.3    65  LEU65       0.0019
     18  CD1       49.6810   93.3940    8.1740 C.3    65  LEU65       0.0001
     19  CD2       50.1640   94.5230   10.4140 C.3    65  LEU65       0.0001
     20  N         49.7940   89.3680    2.5510 N.3   119  TRP119     -0.1241
     21  CA        51.2530   89.2950    2.5310 C.3   119  TRP119      0.1605
     22  C         51.6450   87.8140    2.3280 C.2   119  TRP119      0.2264
     23  O         50.8100   86.9150    2.4800 O.2   119  TRP119     -0.2867
     24  CB        51.7900   89.7620    3.8950 C.3   119  TRP119      0.0550
     25  CG        51.7240   91.2320    4.0720 C.ar  119  TRP119      0.0003
     26  CD1       50.7140   91.9720    4.6650 C.ar  119  TRP119      0.0946
     27  CD2       52.7250   92.1580    3.6680 C.ar  119  TRP119      0.0152
     28  NE1       51.0500   93.3030    4.6600 N.ar  119  TRP119     -0.2442
     29  CE2       52.2840   93.4460    4.0580 C.ar  119  TRP119      0.0810
     30  CE3       53.9690   92.0240    3.0110 C.ar  119  TRP119      0.0012
     31  CZ2       53.0440   94.5960    3.8240 C.ar  119  TRP119      0.0191
     32  CZ3       54.7250   93.1770    2.7660 C.ar  119  TRP119      0.0001
     33  CH2       54.2570   94.4430    3.1800 C.ar  119  TRP119      0.0015
     34  N         55.1350   84.5640    7.0590 N.3   122  GLN122     -0.1245
     35  CA        56.1360   85.3110    7.8280 C.3   122  GLN122      0.1566
     36  C         57.2970   84.4000    8.2330 C.2   122  GLN122      0.2260
     37  O         57.0850   83.3760    8.8810 O.2   122  GLN122     -0.2867
     38  CB        55.5080   85.9150    9.0940 C.3   122  GLN122      0.0367
     39  CG        54.2450   86.7740    8.8250 C.3   122  GLN122      0.0905
     40  CD        54.5790   88.0590    8.0730 C.2   122  GLN122      0.2608
     41  OE1       54.3830   88.1740    6.8560 O.2   122  GLN122     -0.2717
     42  NE2       55.1190   88.9990    8.7800 N.am  122  GLN122     -0.0878
     43  N         62.0570   92.9920   16.4770 N.3   142  ARG142     -0.1245
     44  CA        61.0340   93.8640   15.8880 C.3   142  ARG142      0.1563
     45  C         59.6290   93.2990   16.0200 C.2   142  ARG142      0.2260
     46  O         59.3840   92.1350   15.6740 O.2   142  ARG142     -0.2867
     47  CB        61.3150   94.1010   14.3990 C.3   142  ARG142      0.0307
     48  CG        60.2450   94.9970   13.7240 C.3   142  ARG142      0.0489
     49  CD        60.3950   95.0580   12.2460 C.3   142  ARG142      0.2205
     50  NE        59.2920   95.8580   11.6980 N.pl3 142  ARG142     -0.0865
     51  CZ        58.5370   95.4960   10.6670 C.cat 142  ARG142      0.5346
     52  NH1       58.8240   94.3800   10.0060 N.pl3 142  ARG142      0.1354
     53  NH2       57.5250   96.2870   10.2620 N.pl3 142  ARG142      0.1354
     54  N         55.4660   94.5590   14.9180 N.3   144  TYR144     -0.1241
     55  CA        54.8410   95.5300   14.0080 C.3   144  TYR144      0.1605
     56  C         53.3400   95.6780   14.2050 C.2   144  TYR144      0.2264
     57  O         52.6520   96.3350   13.4090 O.2   144  TYR144     -0.2867
     58  CB        55.1950   95.2410   12.5390 C.3   144  TYR144      0.0534
     59  CG        54.7870   93.8900   12.0080 C.ar  144  TYR144     -0.0201
     60  CD1       53.4370   93.5420   11.8800 C.ar  144  TYR144     -0.0009
     61  CD2       55.7550   92.9640   11.5850 C.ar  144  TYR144     -0.0009
     62  CE1       53.0670   92.3260   11.3870 C.ar  144  TYR144      0.0417
     63  CE2       55.3870   91.7180   11.0920 C.ar  144  TYR144      0.0417
     64  CZ        54.0400   91.3990   10.9990 C.ar  144  TYR144      0.1957
     65  OH        53.6140   90.1920   10.5080 O.3   144  TYR144     -0.2866
     66  N         57.2410   99.5960    9.1120 N.3   162  THR162     -0.1218
     67  CA        58.0360   99.0520    8.0040 C.3   162  THR162      0.1862
     68  C         59.1230   99.9850    7.4040 C.2   162  THR162      0.2287
     69  O         60.2640   99.5400    7.1680 O.2   162  THR162     -0.2866
     70  CB        57.1540   98.4050    6.8970 C.3   162  THR162      0.1770
     71  OG1       55.8650   98.0140    7.4470 O.3   162  THR162     -0.2211
     72  CG2       57.8740   97.1430    6.3060 C.3   162  THR162      0.0375
     73  N         58.9330   88.7820    9.4200 N.3   178  THR178     -0.1203
     74  CA        58.2380   89.4410    8.3020 C.3   178  THR178      0.1994
     75  C         58.3530   88.5510    7.0790 C.2   178  THR178      0.2618
     76  O         59.1180   87.5680    7.1020 O.2   178  THR178     -0.2717
     77  CB        58.7530   90.9100    8.0270 C.3   178  THR178      0.1784
     78  OG1       57.8500   91.5810    7.1370 O.3   178  THR178     -0.2211
     79  CG2       60.2090   90.9740    7.4350 C.3   178  THR178      0.0376
     80  N         57.6240   88.9070    6.0130 N.am  179  SER179     -0.1951
     81  CA        57.6040   88.1260    4.7940 C.3   179  SER179      0.1924
     82  C         58.8960   88.3300    4.0060 C.2   179  SER179      0.2314
     83  O         59.6590   89.3250    4.2320 O.2   179  SER179     -0.2863
     84  CB        56.4350   88.5620    3.8960 C.3   179  SER179      0.2116
     85  OG        56.6330   89.9290    3.5590 O.3   179  SER179     -0.2180
     86  N         58.7790   91.9700    2.2790 N.3   182  THR182     -0.1218
     87  CA        59.4240   93.0730    3.0280 C.3   182  THR182      0.1862
     88  C         60.9450   92.9080    2.9800 C.2   182  THR182      0.2287
     89  O         61.6860   93.8930    2.8610 O.2   182  THR182     -0.2866
     90  CB        58.9130   93.1110    4.4660 C.3   182  THR182      0.1770
     91  OG1       57.5370   93.5350    4.4420 O.3   182  THR182     -0.2211
     92  CG2       59.7330   94.1010    5.3440 C.3   182  THR182      0.0375
     93  N         49.5550   87.3790    7.3240 N.3   203  PRO203     -0.2116
     94  CA        48.7170   88.5000    7.7360 C.3   203  PRO203      0.1372
     95  C         48.1280   89.1610    6.4990 C.2   203  PRO203      0.2244
     96  O         48.7490   89.1730    5.4250 O.2   203  PRO203     -0.2868
     97  CB        49.6840   89.4070    8.5060 C.3   203  PRO203      0.0268
     98  CG        51.0750   89.1570    7.7740 C.3   203  PRO203      0.0207
     99  CD        51.0020   87.7210    7.2900 C.3   203  PRO203      0.0892
@<TRIPOS>BOND
     1    86    87    1
     2    22    23    2
     3    22    21    1
     4    21    20    1
     5    21    24    1
     6    32    30   ar
     7    32    33   ar
     8    89    88    2
     9    88    87    1
    10    30    27   ar
    11    87    90    1
    12    33    31   ar
    13    85    84    1
    14    27    29   ar
    15    27    25   ar
    16    31    29   ar
    17    24    25    1
    18    84    81    1
    19    82    83    2
    20    82    81    1
    21    29    28   ar
    22    25    26   ar
    23    91    90    1
    24    90    92    1
    25    28    26   ar
    26    81    80    1
    27    96    95    2
    28    80    75   am
    29    72    70    1
    30    95    94    1
    31    41    40    2
    32    70    71    1
    33    70    67    1
    34    34    35    1
    35    75    76    2
    36    75    74    1
    37    12    13    1
    38    78    77    1
    39    69    68    2
    40    99    93    1
    41    99    98    1
    42    93    94    1
    43    68    67    1
    44    79    77    1
    45    13    14    1
    46    13    16    1
    47    94    97    1
    48    98    97    1
    49    35    36    1
    50    35    38    1
    51    11     9    1
    52    67    66    1
    53    77    74    1
    54    40    42   am
    55    40    39    1
    56    18    17    1
    57    36    37    2
    58    74    73    1
    59    14    15    2
    60    16    17    1
    61    39    38    1
    62     9     8    2
    63     9    10    1
    64    17    19    1
    65     8     7    1
    66     1     2    1
    67     2     5    1
    68     2     3    1
    69    52    51    1
    70     5     6    1
    71    53    51    1
    72    65    64    1
    73     6     7    1
    74    51    50    2
    75     4     3    2
    76    64    63   ar
    77    64    62   ar
    78    63    61   ar
    79    62    60   ar
    80    61    59   ar
    81    50    49    1
    82    60    59   ar
    83    59    58    1
    84    49    48    1
    85    58    55    1
    86    57    56    2
    87    48    47    1
    88    55    56    1
    89    55    54    1
    90    47    44    1
    91    46    45    2
    92    44    45    1
    93    44    43    1
