@<TRIPOS>MOLECULE
tmp/2pfzA00.pdb
 101 96 0 0 0
SMALL
GASTEIGER

@<TRIPOS>ATOM
      1  N         27.7210   54.5930    1.1720 N.3     9  TYR9       -0.1241
      2  CA        29.1020   54.6230    1.6820 C.3     9  TYR9        0.1605
      3  C         29.5830   53.2330    2.0810 C.2     9  TYR9        0.2264
      4  O         28.7420   52.3370    2.3080 O.2     9  TYR9       -0.2867
      5  CB        29.1820   55.6290    2.8530 C.3     9  TYR9        0.0534
      6  CG        28.5510   56.9190    2.4330 C.ar    9  TYR9       -0.0201
      7  CD1       29.2020   57.7550    1.5340 C.ar    9  TYR9       -0.0009
      8  CD2       27.2750   57.2780    2.8630 C.ar    9  TYR9       -0.0009
      9  CE1       28.6250   58.9120    1.0960 C.ar    9  TYR9        0.0417
     10  CE2       26.6900   58.4240    2.4330 C.ar    9  TYR9        0.0417
     11  CZ        27.3750   59.2570    1.5480 C.ar    9  TYR9        0.1957
     12  OH        26.7920   60.4060    1.0890 O.3     9  TYR9       -0.2866
     13  N         22.1250   61.8040    2.1000 N.3    65  LEU65      -0.1245
     14  CA        22.8640   63.0170    2.4290 C.3    65  LEU65       0.1561
     15  C         21.8810   64.1310    2.1510 C.2    65  LEU65       0.2260
     16  O         21.4360   64.2840    1.0000 O.2    65  LEU65      -0.2867
     17  CB        24.0480   63.1890    1.4780 C.3    65  LEU65       0.0270
     18  CG        24.8390   64.4910    1.6210 C.3    65  LEU65       0.0019
     19  CD1       25.6440   64.4390    2.8850 C.3    65  LEU65       0.0001
     20  CD2       25.7090   64.6990    0.3590 C.3    65  LEU65       0.0001
     21  N         28.5040   64.6530    9.1940 N.3   119  TRP119     -0.1241
     22  CA        29.8530   64.3530    8.7180 C.3   119  TRP119      0.1605
     23  C         30.8020   65.3470    9.4090 C.2   119  TRP119      0.2264
     24  O         30.3620   66.3890    9.8970 O.2   119  TRP119     -0.2867
     25  CB        29.9350   64.6000    7.2050 C.3   119  TRP119      0.0550
     26  CG        29.3180   63.5390    6.3210 C.ar  119  TRP119      0.0003
     27  CD1       28.0280   63.4800    5.8850 C.ar  119  TRP119      0.0946
     28  CD2       29.9970   62.4430    5.7300 C.ar  119  TRP119      0.0152
     29  NE1       27.8490   62.4010    5.0480 N.ar  119  TRP119     -0.2442
     30  CE2       29.0460   61.7280    4.9520 C.ar  119  TRP119      0.0810
     31  CE3       31.3070   61.9650    5.8030 C.ar  119  TRP119      0.0012
     32  CZ2       29.3810   60.5880    4.2330 C.ar  119  TRP119      0.0191
     33  CZ3       31.6380   60.8240    5.0930 C.ar  119  TRP119      0.0001
     34  CH2       30.6800   60.1540    4.3070 C.ar  119  TRP119      0.0015
     35  N         34.0800   70.3220    6.9250 N.3   122  GLN122     -0.1245
     36  CA        34.5120   70.1680    5.5370 C.3   122  GLN122      0.1566
     37  C         35.6800   71.0450    5.1820 C.2   122  GLN122      0.2260
     38  O         35.6220   72.2630    5.3730 O.2   122  GLN122     -0.2867
     39  CB        33.3670   70.4740    4.5940 C.3   122  GLN122      0.0367
     40  CG        32.1180   69.6290    4.9220 C.3   122  GLN122      0.0905
     41  CD        32.1590   68.2010    4.4060 C.2   122  GLN122      0.2608
     42  OE1       32.2220   67.2390    5.1860 O.2   122  GLN122     -0.2717
     43  NE2       32.0720   68.0490    3.1170 N.am  122  GLN122     -0.0878
     44  N         35.6690   68.2330   -7.7410 N.3   142  ARG142     -0.1245
     45  CA        34.6800   67.1770   -7.5710 C.3   142  ARG142      0.1563
     46  C         33.5890   67.6440   -6.6000 C.2   142  ARG142      0.2260
     47  O         33.8540   67.9180   -5.4180 O.2   142  ARG142     -0.2867
     48  CB        35.3510   65.8980   -7.0780 C.3   142  ARG142      0.0307
     49  CG        34.3740   64.7470   -6.6960 C.3   142  ARG142      0.0489
     50  CD        34.1040   64.7130   -5.1690 C.3   142  ARG142      0.2205
     51  NE        33.1530   63.6670   -4.7710 N.pl3 142  ARG142     -0.0865
     52  CZ        32.8970   63.3450   -3.5030 C.cat 142  ARG142      0.5346
     53  NH1       33.5480   63.9610   -2.5040 N.pl3 142  ARG142      0.1354
     54  NH2       32.0020   62.3940   -3.2370 N.pl3 142  ARG142      0.1354
     55  N         29.9830   66.7610   -4.6440 N.3   144  TYR144     -0.1241
     56  CA        29.2080   65.6160   -4.1690 C.3   144  TYR144      0.1605
     57  C         27.7350   66.0040   -3.9760 C.2   144  TYR144      0.2264
     58  O         26.9170   65.1890   -3.5360 O.2   144  TYR144     -0.2867
     59  CB        29.8420   65.0500   -2.8770 C.3   144  TYR144      0.0534
     60  CG        29.8360   65.9600   -1.6530 C.ar  144  TYR144     -0.0201
     61  CD1       31.0340   66.4670   -1.1300 C.ar  144  TYR144     -0.0009
     62  CD2       28.6340   66.3150   -1.0170 C.ar  144  TYR144     -0.0009
     63  CE1       31.0330   67.2970   -0.0050 C.ar  144  TYR144      0.0417
     64  CE2       28.6150   67.1440    0.1130 C.ar  144  TYR144      0.0417
     65  CZ        29.8360   67.6270    0.6180 C.ar  144  TYR144      0.1957
     66  OH        29.8620   68.4270    1.7370 O.3   144  TYR144     -0.2866
     67  N         30.8010   59.2270   -3.8480 N.3   164  GLN164     -0.1245
     68  CA        31.9790   58.7320   -3.1340 C.3   164  GLN164      0.1566
     69  C         32.4160   57.3610   -3.6480 C.2   164  GLN164      0.2260
     70  O         33.6090   57.0660   -3.6960 O.2   164  GLN164     -0.2867
     71  CB        31.7760   58.6530   -1.6080 C.3   164  GLN164      0.0367
     72  CG        33.0880   58.3550   -0.8900 C.3   164  GLN164      0.0905
     73  CD        33.0260   58.4710    0.6350 C.2   164  GLN164      0.2608
     74  OE1       33.5520   57.6190    1.3550 O.2   164  GLN164     -0.2717
     75  NE2       32.4160   59.5250    1.1170 N.am  164  GLN164     -0.0878
     76  N         35.3750   68.0770    1.2350 N.3   181  SER181     -0.1202
     77  CA        34.8120   66.9210    1.9550 C.3   181  SER181      0.2020
     78  C         35.4980   66.8270    3.3240 C.2   181  SER181      0.2619
     79  O         36.1930   67.7580    3.7480 O.2   181  SER181     -0.2717
     80  CB        35.0470   65.6140    1.1980 C.3   181  SER181      0.2103
     81  OG        34.2730   64.5580    1.7550 O.3   181  SER181     -0.2182
     82  N         35.2990   65.6890    3.9990 N.am  182  SER182     -0.1951
     83  CA        35.8040   65.4500    5.3370 C.3   182  SER182      0.1924
     84  C         37.1350   64.6890    5.2590 C.2   182  SER182      0.2314
     85  O         37.4730   64.1370    4.2150 O.2   182  SER182     -0.2863
     86  CB        34.7940   64.6270    6.1220 C.3   182  SER182      0.2116
     87  OG        34.4550   63.4410    5.4100 O.3   182  SER182     -0.2180
     88  N         36.2320   60.9270    4.3540 N.3   185  THR185     -0.1218
     89  CA        36.2010   60.6130    2.9110 C.3   185  THR185      0.1862
     90  C         37.5770   60.6150    2.2800 C.2   185  THR185      0.2287
     91  O         37.9110   59.7040    1.5030 O.2   185  THR185     -0.2866
     92  CB        35.2420   61.5280    2.1510 C.3   185  THR185      0.1770
     93  OG1       33.9180   61.2660    2.6030 O.3   185  THR185     -0.2211
     94  CG2       35.3080   61.2620    0.6500 C.3   185  THR185      0.0375
     95  N         27.9390   68.7020    6.8130 N.3   206  PRO206     -0.2116
     96  CA        26.7090   68.2560    6.1760 C.3   206  PRO206      0.1372
     97  C         26.2270   66.9930    6.8790 C.2   206  PRO206      0.2244
     98  O         27.0410   66.1880    7.3230 O.2   206  PRO206     -0.2868
     99  CB        27.1670   67.9300    4.7490 C.3   206  PRO206      0.0268
    100  CG        28.5890   67.4900    4.8890 C.3   206  PRO206      0.0207
    101  CD        29.1430   68.1870    6.1360 C.3   206  PRO206      0.0892
@<TRIPOS>BOND
     1    44    45    1
     2    45    48    1
     3    45    46    1
     4    48    49    1
     5    49    50    1
     6    46    47    2
     7    50    51    1
     8    51    52    2
     9    55    56    1
    10    56    57    1
    11    56    59    1
    12    57    58    2
    13    67    68    1
    14    70    69    2
    15    69    68    1
    16    52    54    1
    17    52    53    1
    18    68    71    1
    19    59    60    1
    20    60    61   ar
    21    60    62   ar
    22    71    72    1
    23    61    63   ar
    24    62    64   ar
    25    72    73    1
    26    63    65   ar
    27    64    65   ar
    28    20    18    1
    29    65    66    1
    30    73    75   am
    31    73    74    2
    32    94    92    1
    33    16    15    2
    34    12    11    1
    35     9     7   ar
    36     9    11   ar
    37     1     2    1
    38    80    81    1
    39    80    77    1
    40    76    77    1
    41    17    18    1
    42    17    14    1
    43    91    90    2
    44     7     6   ar
    45    11    10   ar
    46    18    19    1
    47     2     3    1
    48     2     5    1
    49    77    78    1
    50     3     4    2
    51    13    14    1
    52    15    14    1
    53    92    93    1
    54    92    89    1
    55    90    89    1
    56    10     8   ar
    57     6     5    1
    58     6     8   ar
    59    89    88    1
    60    43    41   am
    61    78    79    2
    62    78    82   am
    63    82    83    1
    64    85    84    2
    65    32    34   ar
    66    32    30   ar
    67    34    33   ar
    68    41    40    1
    69    41    42    2
    70    39    40    1
    71    39    36    1
    72    99   100    1
    73    99    96    1
    74   100   101    1
    75    30    29   ar
    76    30    28   ar
    77    29    27   ar
    78    33    31   ar
    79    37    38    2
    80    37    36    1
    81    84    83    1
    82    83    86    1
    83    87    86    1
    84    36    35    1
    85    28    31   ar
    86    28    26   ar
    87    27    26   ar
    88   101    95    1
    89    96    95    1
    90    96    97    1
    91    26    25    1
    92    97    98    2
    93    25    22    1
    94    22    21    1
    95    22    23    1
    96    23    24    2
