@<TRIPOS>MOLECULE
tmp/2pg0A01.pdb
 149 146 0 0 0
SMALL
GASTEIGER

@<TRIPOS>ATOM
      1  N        -24.3730   61.6570   -0.9250 N.3   265  TYR265     -0.1241
      2  CA       -23.4430   60.6430   -1.4180 C.3   265  TYR265      0.1605
      3  C        -24.1390   59.3920   -1.9550 C.2   265  TYR265      0.2264
      4  O        -23.8670   58.9630   -3.0770 O.2   265  TYR265     -0.2867
      5  CB       -22.3930   60.2560   -0.3680 C.3   265  TYR265      0.0534
      6  CG       -21.3650   59.3150   -0.9490 C.ar  265  TYR265     -0.0201
      7  CD1      -20.3280   59.8080   -1.7480 C.ar  265  TYR265     -0.0009
      8  CD2      -21.4400   57.9320   -0.7330 C.ar  265  TYR265     -0.0009
      9  CE1      -19.3830   58.9530   -2.3080 C.ar  265  TYR265      0.0417
     10  CE2      -20.4930   57.0650   -1.2970 C.ar  265  TYR265      0.0417
     11  CZ       -19.4720   57.5900   -2.0820 C.ar  265  TYR265      0.1957
     12  OH       -18.5250   56.7660   -2.6580 O.3   265  TYR265     -0.2866
     13  N        -24.0580   57.6040   -5.7560 N.3   269  ARG269     -0.1245
     14  CA       -23.2010   56.4270   -5.8780 C.3   269  ARG269      0.1563
     15  C        -23.9970   55.2510   -6.4410 C.2   269  ARG269      0.2260
     16  O        -25.0850   54.9440   -5.9530 O.2   269  ARG269     -0.2867
     17  CB       -22.6080   56.0590   -4.5090 C.3   269  ARG269      0.0307
     18  CG       -21.7380   54.7980   -4.5040 C.3   269  ARG269      0.0489
     19  CD       -20.4560   55.0050   -5.3000 C.3   269  ARG269      0.2205
     20  NE       -19.5400   53.8690   -5.1900 N.pl3 269  ARG269     -0.0865
     21  CZ       -18.3830   53.7760   -5.8460 C.cat 269  ARG269      0.5346
     22  NH1      -18.0020   54.7540   -6.6630 N.pl3 269  ARG269      0.1354
     23  NH2      -17.6050   52.7090   -5.6800 N.pl3 269  ARG269      0.1354
     24  N        -24.2050   51.0800   -7.3740 N.3   271  ALA271     -0.1231
     25  CA       -23.6940   49.7270   -7.1300 C.3   271  ALA271      0.1694
     26  C        -24.7850   48.7360   -7.5120 C.2   271  ALA271      0.2592
     27  O        -25.9620   48.9750   -7.2280 O.2   271  ALA271     -0.2718
     28  CB       -23.3100   49.5530   -5.6740 C.3   271  ALA271      0.0304
     29  N        -24.3970   47.6330   -8.1600 N.am  272  PHE272     -0.1976
     30  CA       -25.3500   46.5880   -8.5750 C.3   272  PHE272      0.1639
     31  C        -26.4850   47.1170   -9.4610 C.2   272  PHE272      0.2290
     32  O        -27.6210   46.6410   -9.3850 O.2   272  PHE272     -0.2864
     33  CB       -25.8880   45.8230   -7.3510 C.3   272  PHE272      0.0560
     34  CG       -24.8050   45.3410   -6.4330 C.ar  272  PHE272     -0.0200
     35  CD1      -24.1290   44.1510   -6.7000 C.ar  272  PHE272     -0.0042
     36  CD2      -24.4290   46.0920   -5.3220 C.ar  272  PHE272     -0.0042
     37  CE1      -23.1110   43.7050   -5.8640 C.ar  272  PHE272     -0.0003
     38  CE2      -23.4050   45.6550   -4.4780 C.ar  272  PHE272     -0.0003
     39  CZ       -22.7480   44.4600   -4.7490 C.ar  272  PHE272     -0.0000
     40  N        -27.1630   53.6680   -4.5620 N.3   276  VAL276     -0.1245
     41  CA       -27.0670   53.0550   -3.2370 C.3   276  VAL276      0.1561
     42  C        -28.3010   53.4170   -2.3850 C.2   276  VAL276      0.2260
     43  O        -28.7880   52.6000   -1.5990 O.2   276  VAL276     -0.2867
     44  CB       -25.7300   53.4080   -2.5350 C.3   276  VAL276      0.0252
     45  CG1      -25.7260   52.9460   -1.0820 C.3   276  VAL276      0.0019
     46  CG2      -24.5480   52.7620   -3.2840 C.3   276  VAL276      0.0019
     47  N        -31.4110   50.8880   -2.1380 N.3   279  PHE279     -0.1241
     48  CA       -31.4600   49.6710   -1.3230 C.3   279  PHE279      0.1605
     49  C        -32.2350   49.9500   -0.0510 C.2   279  PHE279      0.2264
     50  O        -32.0570   51.0020    0.5740 O.2   279  PHE279     -0.2867
     51  CB       -30.0470   49.1570   -1.0220 C.3   279  PHE279      0.0534
     52  CG       -29.3130   48.7120   -2.2520 C.ar  279  PHE279     -0.0203
     53  CD1      -29.6650   47.5250   -2.8900 C.ar  279  PHE279     -0.0042
     54  CD2      -28.3050   49.5010   -2.8000 C.ar  279  PHE279     -0.0042
     55  CE1      -28.9980   47.1130   -4.0580 C.ar  279  PHE279     -0.0003
     56  CE2      -27.6310   49.1040   -3.9600 C.ar  279  PHE279     -0.0003
     57  CZ       -27.9780   47.9130   -4.5870 C.ar  279  PHE279     -0.0000
     58  N        -32.2560   48.7560    3.0340 N.3   281  THR281     -0.1203
     59  CA       -31.4840   48.9790    4.2740 C.3   281  THR281      0.1994
     60  C        -30.9140   50.3970    4.3470 C.2   281  THR281      0.2617
     61  O        -30.8740   50.9890    5.4230 O.2   281  THR281     -0.2717
     62  CB       -30.3350   47.9670    4.4850 C.3   281  THR281      0.1784
     63  OG1      -29.4230   48.0220    3.3790 O.3   281  THR281     -0.2211
     64  CG2      -30.8820   46.5530    4.6650 C.3   281  THR281      0.0376
     65  N        -30.4930   50.9450    3.2090 N.am  282  VAL282     -0.1979
     66  CA       -29.9760   52.3160    3.1700 C.3   282  VAL282      0.1595
     67  C        -31.1040   53.3130    3.4290 C.2   282  VAL282      0.2287
     68  O        -30.9430   54.2540    4.2070 O.2   282  VAL282     -0.2864
     69  CB       -29.2700   52.6390    1.8320 C.3   282  VAL282      0.0276
     70  CG1      -28.8600   54.1140    1.7710 C.3   282  VAL282      0.0022
     71  CG2      -28.0490   51.7340    1.6360 C.3   282  VAL282      0.0022
     72  N        -32.0040   53.1200    7.1740 N.3   285  ARG285     -0.1245
     73  CA       -30.9420   53.7440    7.9710 C.3   285  ARG285      0.1563
     74  C        -31.0540   55.2550    7.9050 C.2   285  ARG285      0.2260
     75  O        -30.9540   55.9330    8.9300 O.2   285  ARG285     -0.2867
     76  CB       -29.5580   53.2670    7.5240 C.3   285  ARG285      0.0307
     77  CG       -29.3090   51.8170    7.9280 C.3   285  ARG285      0.0489
     78  CD       -28.1110   51.2490    7.1990 C.3   285  ARG285      0.2205
     79  NE       -26.8480   51.6600    7.7980 N.pl3 285  ARG285     -0.0865
     80  CZ       -25.6670   51.1560    7.4530 C.cat 285  ARG285      0.5346
     81  NH1      -25.5910   50.2310    6.5050 N.pl3 285  ARG285      0.1354
     82  NH2      -24.5600   51.5760    8.0570 N.pl3 285  ARG285      0.1354
     83  N        -19.5770   54.6710    7.3970 N.3   337  GLN337     -0.1231
     84  CA       -19.8560   53.3440    6.8340 C.3   337  GLN337      0.1698
     85  C        -20.5560   53.4170    5.4790 C.2   337  GLN337      0.2592
     86  O        -20.1950   52.7020    4.5440 O.2   337  GLN337     -0.2718
     87  CB       -20.6720   52.4840    7.8080 C.3   337  GLN337      0.0381
     88  CG       -20.8840   51.0150    7.3380 C.3   337  GLN337      0.0905
     89  CD       -19.6010   50.1790    7.3110 C.2   337  GLN337      0.2608
     90  OE1      -18.6140   50.5190    7.9620 O.2   337  GLN337     -0.2717
     91  NE2      -19.6190   49.0730    6.5580 N.am  337  GLN337     -0.0878
     92  N        -21.5430   54.2980    5.3700 N.am  338  LEU338     -0.1966
     93  CA       -22.2940   54.4220    4.1290 C.3   338  LEU338      0.1728
     94  C        -21.4990   55.0390    2.9740 C.2   338  LEU338      0.2616
     95  O        -21.9200   54.9480    1.8180 O.2   338  LEU338     -0.2715
     96  CB       -23.6150   55.1550    4.3680 C.3   338  LEU338      0.0311
     97  CG       -24.6440   54.3250    5.1430 C.3   338  LEU338      0.0022
     98  CD1      -25.7910   55.2040    5.6410 C.3   338  LEU338      0.0001
     99  CD2      -25.1640   53.1480    4.2950 C.3   338  LEU338      0.0001
    100  N        -20.3570   55.6630    3.2820 N.am  339  HIS339     -0.1959
    101  CA       -19.4610   56.1850    2.2380 C.3   339  HIS339      0.1787
    102  C        -18.4980   55.1060    1.6880 C.2   339  HIS339      0.2621
    103  O        -17.7520   55.3460    0.7260 O.2   339  HIS339     -0.2715
    104  CB       -18.6510   57.3810    2.7630 C.3   339  HIS339      0.0785
    105  CG       -19.3890   58.6870    2.7610 C.ar  339  HIS339      0.0821
    106  ND1      -20.3850   58.9840    3.6670 N.ar  339  HIS339     -0.2267
    107  CD2      -19.2380   59.7930    1.9920 C.ar  339  HIS339      0.1154
    108  CE1      -20.8340   60.2070    3.4390 C.ar  339  HIS339      0.1986
    109  NE2      -20.1510   60.7220    2.4310 N.ar  339  HIS339     -0.2212
    110  N        -18.5090   53.9230    2.2980 N.am  340  GLY340     -0.1940
    111  CA       -17.5410   52.8780    1.9540 C.3   340  GLY340      0.2014
    112  C        -16.1220   53.3340    2.2530 C.2   340  GLY340      0.2639
    113  O        -15.8960   54.0620    3.2130 O.2   340  GLY340     -0.2714
    114  N        -15.1660   52.9140    1.4220 N.am  341  GLY341     -0.1939
    115  CA       -13.7580   53.2920    1.5930 C.3   341  GLY341      0.2014
    116  C        -13.5510   54.8000    1.6190 C.2   341  GLY341      0.2638
    117  O        -12.6650   55.3020    2.3140 O.2   341  GLY341     -0.2714
    118  N        -14.4000   55.5240    0.8860 N.am  342  TYR342     -0.1973
    119  CA       -14.2990   56.9900    0.7870 C.3   342  TYR342      0.1639
    120  C        -14.5180   57.7310    2.1080 C.2   342  TYR342      0.2290
    121  O        -13.9600   58.8080    2.3090 O.2   342  TYR342     -0.2864
    122  CB       -15.2060   57.5240   -0.3420 C.3   342  TYR342      0.0560
    123  CG       -14.8740   56.8320   -1.6410 C.ar  342  TYR342     -0.0198
    124  CD1      -13.8160   57.2760   -2.4390 C.ar  342  TYR342     -0.0009
    125  CD2      -15.5620   55.6870   -2.0320 C.ar  342  TYR342     -0.0009
    126  CE1      -13.4790   56.6100   -3.6280 C.ar  342  TYR342      0.0417
    127  CE2      -15.2230   55.0080   -3.2080 C.ar  342  TYR342      0.0417
    128  CZ       -14.1810   55.4790   -3.9940 C.ar  342  TYR342      0.1957
    129  OH       -13.8450   54.8190   -5.1550 O.3   342  TYR342     -0.2866
    130  N        -13.2980   56.9520    4.8510 N.3   344  TYR344     -0.1227
    131  CA       -12.0370   56.8450    5.6020 C.3   344  TYR344      0.1736
    132  C        -10.9210   57.7100    4.9910 C.2   344  TYR344      0.2595
    133  O         -9.8060   57.7730    5.5220 O.2   344  TYR344     -0.2718
    134  CB       -11.6090   55.3790    5.6740 C.3   344  TYR344      0.0548
    135  CG       -10.6870   55.0480    6.8300 C.ar  344  TYR344     -0.0200
    136  CD1      -11.1400   55.1260    8.1600 C.ar  344  TYR344     -0.0009
    137  CD2       -9.3700   54.6420    6.6000 C.ar  344  TYR344     -0.0009
    138  CE1      -10.2970   54.8180    9.2250 C.ar  344  TYR344      0.0417
    139  CE2       -8.5230   54.3240    7.6590 C.ar  344  TYR344      0.0417
    140  CZ        -8.9990   54.4180    8.9660 C.ar  344  TYR344      0.1957
    141  OH        -8.1710   54.1150   10.0130 O.3   344  TYR344     -0.2866
    142  N        -11.2430   58.3810    3.8840 N.am  345  MET345     -0.1979
    143  CA       -10.2940   59.2260    3.1560 C.3   345  MET345      0.1605
    144  C        -10.4250   60.6880    3.5760 C.2   345  MET345      0.2287
    145  O        -11.5150   61.2530    3.5410 O.2   345  MET345     -0.2864
    146  CB       -10.5290   59.1020    1.6380 C.3   345  MET345      0.0413
    147  CG       -10.3080   57.6990    1.0260 C.3   345  MET345      0.0598
    148  SD        -8.6350   57.0110    1.2260 S.3   345  MET345     -0.1393
    149  CE        -8.9740   55.7180    2.4410 C.3   345  MET345      0.0692
@<TRIPOS>BOND
     1    31    32    2
     2    31    30    1
     3    30    29    1
     4    30    33    1
     5    29    26   am
     6    26    27    2
     7    26    25    1
     8    24    25    1
     9    33    34    1
    10    25    28    1
    11    35    34   ar
    12    35    37   ar
    13    22    21    1
    14    15    16    2
    15    15    14    1
    16    34    36   ar
    17    14    13    1
    18    14    17    1
    19    37    39   ar
    20    21    23    1
    21    21    20    2
    22    36    38   ar
    23    19    20    1
    24    19    18    1
    25   129   128    1
    26    39    38   ar
    27    57    55   ar
    28    57    56   ar
    29    40    41    1
    30    17    18    1
    31    55    53   ar
    32   128   126   ar
    33   128   127   ar
    34    56    54   ar
    35   126   124   ar
    36    46    44    1
    37    41    44    1
    38    41    42    1
    39   127   125   ar
    40     4     3    2
    41    53    52   ar
    42    54    52   ar
    43    12    11    1
    44    44    45    1
    45   124   123   ar
    46    42    43    2
    47     9    11   ar
    48     9     7   ar
    49    52    51    1
    50    47    48    1
    51    11    10   ar
    52   125   123   ar
    53     3     2    1
    54     7     6   ar
    55   123   122    1
    56     2     1    1
    57     2     5    1
    58    48    51    1
    59    48    49    1
    60    10     8   ar
    61     6     8   ar
    62     6     5    1
    63   122   119    1
    64    49    50    2
    65   103   102    2
    66   119   118    1
    67   119   120    1
    68   118   116   am
    69   147   148    1
    70   147   146    1
    71   148   149    1
    72   114   115    1
    73   114   112   am
    74   115   116    1
    75   116   117    2
    76    71    69    1
    77   146   143    1
    78   102   101    1
    79   102   110   am
    80    70    69    1
    81    95    94    2
    82    69    66    1
    83   111   112    1
    84   111   110    1
    85   107   109   ar
    86   107   105   ar
    87   120   121    2
    88   101   104    1
    89   101   100    1
    90   112   113    2
    91   109   108   ar
    92   105   104    1
    93   105   106   ar
    94    94   100   am
    95    94    93    1
    96    58    59    1
    97   143   144    1
    98   143   142    1
    99    66    65    1
   100    66    67    1
   101    65    60   am
   102    63    62    1
   103    67    68    2
   104   108   106   ar
   105   145   144    2
   106   142   132   am
   107    93    96    1
   108    93    92    1
   109    59    60    1
   110    59    62    1
   111    99    97    1
   112    60    61    2
   113    96    97    1
   114    62    64    1
   115    86    85    2
   116   130   131    1
   117   132   133    2
   118   132   131    1
   119    97    98    1
   120    92    85   am
   121    85    84    1
   122   131   134    1
   123   134   135    1
   124    81    80    1
   125    91    89   am
   126   137   135   ar
   127   137   139   ar
   128   135   136   ar
   129    84    83    1
   130    84    87    1
   131    72    73    1
   132    78    79    1
   133    78    77    1
   134    89    88    1
   135    89    90    2
   136    88    87    1
   137    80    79    2
   138    80    82    1
   139    76    77    1
   140    76    73    1
   141   139   140   ar
   142    74    73    1
   143    74    75    2
   144   136   138   ar
   145   140   138   ar
   146   140   141    1
