@<TRIPOS>MOLECULE
tmp/2pg0A00.pdb
 187 178 0 0 0
SMALL
GASTEIGER

@<TRIPOS>ATOM
      1  N        -17.5350   79.9600   22.1700 N.3    88  LEU88      -0.1245
      2  CA       -16.9880   80.0010   23.5290 C.3    88  LEU88       0.1561
      3  C        -16.7670   81.4530   23.9950 C.2    88  LEU88       0.2260
      4  O        -17.2360   81.8530   25.0680 O.2    88  LEU88      -0.2867
      5  CB       -15.6960   79.1730   23.6210 C.3    88  LEU88       0.0270
      6  CG       -14.9180   79.3390   24.9330 C.3    88  LEU88       0.0019
      7  CD1      -15.3590   78.3230   25.9520 C.3    88  LEU88       0.0001
      8  CD2      -13.4270   79.2430   24.6960 C.3    88  LEU88       0.0001
      9  N        -11.8040   80.1560   29.1210 N.3   122  ILE122     -0.1245
     10  CA       -12.1410   79.8030   30.4950 C.3   122  ILE122      0.1561
     11  C        -11.3610   78.5510   30.9070 C.2   122  ILE122      0.2260
     12  O        -11.2920   77.5760   30.1440 O.2   122  ILE122     -0.2867
     13  CB       -13.6750   79.6770   30.6990 C.3   122  ILE122      0.0252
     14  CG1      -14.0060   79.4570   32.1810 C.3   122  ILE122      0.0019
     15  CG2      -14.2940   78.6070   29.7590 C.3   122  ILE122      0.0019
     16  CD1      -15.3980   79.9050   32.5740 C.3   122  ILE122      0.0001
     17  N        -10.9430   75.8130   33.8120 N.3   124  MET124     -0.1230
     18  CA       -11.4670   75.0870   34.9690 C.3   124  MET124      0.1702
     19  C        -10.6070   73.8250   35.1400 C.2   124  MET124      0.2593
     20  O         -9.9600   73.6260   36.1720 O.2   124  MET124     -0.2718
     21  CB       -12.9330   74.6580   34.7310 C.3   124  MET124      0.0401
     22  CG       -14.0020   75.7670   34.5850 C.3   124  MET124      0.0596
     23  SD       -15.6470   75.1180   34.1030 S.3   124  MET124     -0.1393
     24  CE       -15.7160   75.6490   32.3970 C.3   124  MET124      0.0692
     25  N        -10.5820   73.0090   34.0880 N.am  125  THR125     -0.1939
     26  CA        -9.9870   71.6670   34.0940 C.3   125  THR125      0.2028
     27  C         -8.4840   71.6410   34.3840 C.2   125  THR125      0.2642
     28  O         -7.7190   72.4640   33.8720 O.2   125  THR125     -0.2714
     29  CB       -10.2850   70.9580   32.7480 C.3   125  THR125      0.1808
     30  OG1      -11.6940   71.0330   32.4930 O.3   125  THR125     -0.2208
     31  CG2       -9.8570   69.4910   32.7750 C.3   125  THR125      0.0379
     32  N         -8.0770   70.6710   35.2040 N.am  126  GLU126     -0.1963
     33  CA        -6.6840   70.4750   35.5840 C.3   126  GLU126      0.1718
     34  C         -6.2600   69.0270   35.2940 C.2   126  GLU126      0.2458
     35  O         -7.1220   68.1670   35.1050 O.2   126  GLU126     -0.2730
     36  CB        -6.5050   70.7990   37.0710 C.3   126  GLU126      0.0428
     37  CG        -6.9430   72.2190   37.4470 C.3   126  GLU126      0.1163
     38  CD        -6.6180   72.5820   38.8790 C.2   126  GLU126      0.3649
     39  OE1       -6.1890   71.6910   39.6410 O.co2 126  GLU126     -0.2457
     40  OE2       -6.8100   73.7630   39.2540 O.co2 126  GLU126     -0.2457
     41  N         -4.9360   68.7550   35.2260 N.am  127  PRO127     -0.2727
     42  CA        -4.5110   67.3700   35.0000 C.3   127  PRO127      0.1402
     43  C         -5.1960   66.3760   35.9440 C.2   127  PRO127      0.2269
     44  O         -5.5930   65.2990   35.5020 O.2   127  PRO127     -0.2865
     45  CB        -3.0090   67.4240   35.2590 C.3   127  PRO127      0.0296
     46  CG        -2.6410   68.8230   34.8360 C.3   127  PRO127      0.0237
     47  CD        -3.7780   69.6630   35.3300 C.3   127  PRO127      0.0939
     48  N         -8.1220   66.8370   37.7710 N.3   129  ALA129     -0.1231
     49  CA        -9.5640   66.9810   37.9480 C.3   129  ALA129      0.1694
     50  C        -10.2420   67.6950   36.7790 C.2   129  ALA129      0.2593
     51  O         -9.8170   68.7790   36.3570 O.2   129  ALA129     -0.2718
     52  CB        -9.8730   67.7000   39.2700 C.3   129  ALA129      0.0304
     53  N        -11.2880   67.0630   36.2570 N.am  130  GLY130     -0.1942
     54  CA       -12.1330   67.6540   35.2310 C.3   130  GLY130      0.2014
     55  C        -13.5720   67.5630   35.6830 C.2   130  GLY130      0.2640
     56  O        -14.1680   68.5670   36.0850 O.2   130  GLY130     -0.2714
     57  N        -14.1290   66.3500   35.6330 N.am  131  SER131     -0.1935
     58  CA       -15.4920   66.1030   36.1240 C.3   131  SER131      0.2055
     59  C        -15.6400   66.5220   37.5890 C.2   131  SER131      0.2643
     60  O        -16.6480   67.1290   37.9740 O.2   131  SER131     -0.2714
     61  CB       -15.8790   64.6240   35.9700 C.3   131  SER131      0.2130
     62  OG       -15.7050   64.1740   34.6330 O.3   131  SER131     -0.2179
     63  N        -14.6240   66.1940   38.3850 N.am  132  ASP132     -0.1971
     64  CA       -14.6010   66.4830   39.8180 C.3   132  ASP132      0.1709
     65  C        -14.0080   67.8750   40.0630 C.2   132  ASP132      0.2293
     66  O        -12.9390   68.0200   40.6640 O.2   132  ASP132     -0.2864
     67  CB       -13.7990   65.3930   40.5470 C.3   132  ASP132      0.1436
     68  CG       -13.8900   65.4920   42.0620 C.2   132  ASP132      0.3671
     69  OD1      -14.7000   66.2960   42.5870 O.co2 132  ASP132     -0.2456
     70  OD2      -13.1310   64.7490   42.7240 O.co2 132  ASP132     -0.2456
     71  N         -6.4390   71.2950   28.5430 N.3   155  PHE155     -0.1227
     72  CA        -7.4600   71.2940   27.4830 C.3   155  PHE155      0.1736
     73  C         -8.1520   72.6510   27.2750 C.2   155  PHE155      0.2595
     74  O         -9.3620   72.6990   27.0370 O.2   155  PHE155     -0.2718
     75  CB        -8.5570   70.2510   27.7500 C.3   155  PHE155      0.0547
     76  CG        -8.0570   68.8750   28.0800 C.ar  155  PHE155     -0.0202
     77  CD1       -7.2250   68.1840   27.2090 C.ar  155  PHE155     -0.0042
     78  CD2       -8.4820   68.2450   29.2480 C.ar  155  PHE155     -0.0042
     79  CE1       -6.7810   66.8910   27.5170 C.ar  155  PHE155     -0.0003
     80  CE2       -8.0490   66.9570   29.5600 C.ar  155  PHE155     -0.0003
     81  CZ        -7.2040   66.2810   28.6930 C.ar  155  PHE155     -0.0000
     82  N         -7.4110   73.7510   27.3350 N.am  156  ILE156     -0.1966
     83  CA        -8.0590   75.0640   27.2890 C.3   156  ILE156      0.1727
     84  C         -8.3190   75.5220   25.8460 C.2   156  ILE156      0.2616
     85  O         -7.3870   75.7350   25.0690 O.2   156  ILE156     -0.2715
     86  CB        -7.2620   76.1360   28.1020 C.3   156  ILE156      0.0290
     87  CG1       -7.0920   75.6870   29.5650 C.3   156  ILE156      0.0022
     88  CG2       -7.9380   77.5340   28.0010 C.3   156  ILE156      0.0023
     89  CD1       -8.3640   75.1280   30.2460 C.3   156  ILE156      0.0001
     90  N         -9.5960   75.6490   25.5030 N.am  157  THR157     -0.1951
     91  CA       -10.0260   76.1220   24.1770 C.3   157  THR157      0.1897
     92  C         -9.5800   77.5890   24.0260 C.2   157  THR157      0.2313
     93  O         -9.6250   78.3460   25.0000 O.2   157  THR157     -0.2863
     94  CB       -11.5540   75.9750   24.0330 C.3   157  THR157      0.1794
     95  OG1      -11.9070   74.5900   24.1540 O.3   157  THR157     -0.2208
     96  CG2      -12.0490   76.4890   22.6730 C.3   157  THR157      0.0378
     97  N         -4.5390   66.6240   18.7670 N.3   202  LYS202     -0.1245
     98  CA        -5.8020   65.9450   19.0820 C.3   202  LYS202      0.1561
     99  C         -6.3070   65.0920   17.9080 C.2   202  LYS202      0.2260
    100  O         -5.8400   65.2410   16.7740 O.2   202  LYS202     -0.2867
    101  CB        -6.8660   66.9760   19.4740 C.3   202  LYS202      0.0271
    102  CG        -6.3620   68.1280   20.3660 C.3   202  LYS202      0.0035
    103  CD        -7.4990   69.0770   20.7720 C.3   202  LYS202      0.0206
    104  CE        -8.1400   69.7930   19.5680 C.3   202  LYS202      0.1093
    105  NZ        -7.1650   70.6660   18.8690 N.3   202  LYS202     -0.1314
    106  N        -10.7570   68.5370   15.7230 N.3   205  LEU205     -0.1245
    107  CA       -10.7610   69.9760   16.0180 C.3   205  LEU205      0.1561
    108  C         -9.3610   70.5370   15.7570 C.2   205  LEU205      0.2260
    109  O         -8.8260   71.3150   16.5440 O.2   205  LEU205     -0.2867
    110  CB       -11.2280   70.2470   17.4650 C.3   205  LEU205      0.0270
    111  CG       -12.7250   70.4540   17.7450 C.3   205  LEU205      0.0019
    112  CD1      -13.5540   69.2610   17.3040 C.3   205  LEU205      0.0001
    113  CD2      -12.9880   70.7510   19.2280 C.3   205  LEU205      0.0001
    114  N         -6.0800   74.3670   21.1750 N.3   210  THR210     -0.1218
    115  CA        -6.2210   73.8510   22.5320 C.3   210  THR210      0.1862
    116  C         -4.8460   73.7280   23.1610 C.2   210  THR210      0.2287
    117  O         -3.9170   73.2220   22.5280 O.2   210  THR210     -0.2866
    118  CB        -6.8880   72.4620   22.5420 C.3   210  THR210      0.1770
    119  OG1       -7.9270   72.4180   21.5600 O.3   210  THR210     -0.2211
    120  CG2       -7.4720   72.1710   23.9230 C.3   210  THR210      0.0375
    121  N        -15.6920   64.1450   20.7740 N.3   359  VAL359     -0.1245
    122  CA       -15.2940   64.9570   21.9230 C.3   359  VAL359      0.1561
    123  C        -16.4740   65.7410   22.5190 C.2   359  VAL359      0.2260
    124  O        -16.4330   66.1390   23.6890 O.2   359  VAL359     -0.2867
    125  CB       -14.0750   65.8700   21.5910 C.3   359  VAL359      0.0252
    126  CG1      -14.4410   66.9540   20.5780 C.3   359  VAL359      0.0019
    127  CG2      -13.5170   66.4920   22.8630 C.3   359  VAL359      0.0019
    128  N        -17.6820   64.6100   25.7650 N.3   362  ILE362     -0.1231
    129  CA       -16.7060   64.7380   26.8440 C.3   362  ILE362      0.1692
    130  C        -16.6900   66.1470   27.4310 C.2   362  ILE362      0.2592
    131  O        -16.8120   66.3080   28.6480 O.2   362  ILE362     -0.2718
    132  CB       -15.2930   64.2930   26.3780 C.3   362  ILE362      0.0266
    133  CG1      -15.2980   62.7950   26.0450 C.3   362  ILE362      0.0019
    134  CG2      -14.2300   64.5770   27.4520 C.3   362  ILE362      0.0020
    135  CD1      -14.0790   62.3210   25.2470 C.3   362  ILE362      0.0001
    136  N        -16.5530   67.1690   26.5900 N.am  363  TYR363     -0.1962
    137  CA       -16.4220   68.5270   27.1370 C.3   363  TYR363      0.1771
    138  C        -17.7680   69.1640   27.5050 C.2   363  TYR363      0.2619
    139  O        -18.8240   68.6330   27.1490 O.2   363  TYR363     -0.2715
    140  CB       -15.5260   69.4320   26.2730 C.3   363  TYR363      0.0574
    141  CG       -15.9180   69.6410   24.8190 C.ar  363  TYR363     -0.0198
    142  CD1      -17.2330   69.9420   24.4460 C.ar  363  TYR363     -0.0009
    143  CD2      -14.9460   69.6100   23.8220 C.ar  363  TYR363     -0.0009
    144  CE1      -17.5730   70.1650   23.1070 C.ar  363  TYR363      0.0417
    145  CE2      -15.2740   69.8310   22.4860 C.ar  363  TYR363      0.0417
    146  CZ       -16.5850   70.1070   22.1370 C.ar  363  TYR363      0.1957
    147  OH       -16.8930   70.3280   20.8120 O.3   363  TYR363     -0.2866
    148  N        -17.6980   70.2820   28.2370 N.am  364  ALA364     -0.1963
    149  CA       -18.8440   70.9310   28.8890 C.3   364  ALA364      0.1728
    150  C        -19.5010   70.0150   29.9360 C.2   364  ALA364      0.2617
    151  O        -20.6500   70.2190   30.3220 O.2   364  ALA364     -0.2715
    152  CB       -19.8680   71.4380   27.8610 C.3   364  ALA364      0.0334
    153  N        -18.7400   69.0280   30.4030 N.am  365  GLY365     -0.1940
    154  CA       -19.2450   68.0090   31.3220 C.3   365  GLY365      0.2014
    155  C        -19.4740   66.7380   30.5360 C.2   365  GLY365      0.2639
    156  O        -20.1690   66.7570   29.5210 O.2   365  GLY365     -0.2714
    157  N        -18.8870   65.6300   30.9860 N.am  366  THR366     -0.1950
    158  CA       -19.0710   64.3570   30.2910 C.3   366  THR366      0.1897
    159  C        -20.5380   63.9420   30.3130 C.2   366  THR366      0.2313
    160  O        -21.3150   64.3970   31.1580 O.2   366  THR366     -0.2863
    161  CB       -18.2740   63.2080   30.9330 C.3   366  THR366      0.1794
    162  OG1      -18.7760   62.9750   32.2570 O.3   366  THR366     -0.2208
    163  CG2      -16.7910   63.5260   30.9810 C.3   366  THR366      0.0378
    164  N        -21.6570   61.1930   31.2280 N.3   368  GLU368     -0.1231
    165  CA       -21.8530   60.5250   32.5230 C.3   368  GLU368      0.1699
    166  C        -22.2350   61.5560   33.5830 C.2   368  GLU368      0.2592
    167  O        -23.1040   61.2950   34.4240 O.2   368  GLU368     -0.2718
    168  CB       -20.5980   59.7630   32.9590 C.3   368  GLU368      0.0402
    169  CG       -20.2520   58.5440   32.0950 C.3   368  GLU368      0.1161
    170  CD       -19.6700   58.8850   30.7200 C.2   368  GLU368      0.3649
    171  OE1      -19.0340   59.9590   30.5410 O.co2 368  GLU368     -0.2457
    172  OE2      -19.8580   58.0540   29.8020 O.co2 368  GLU368     -0.2457
    173  N        -21.6000   62.7310   33.5410 N.am  369  MET369     -0.1979
    174  CA       -21.9940   63.8110   34.4520 C.3   369  MET369      0.1605
    175  C        -23.4060   64.3350   34.1520 C.2   369  MET369      0.2287
    176  O        -24.1460   64.6840   35.0680 O.2   369  MET369     -0.2864
    177  CB       -20.9600   64.9520   34.4590 C.3   369  MET369      0.0413
    178  CG       -19.6040   64.5780   35.0710 C.3   369  MET369      0.0598
    179  SD       -19.6630   64.0330   36.8070 S.3   369  MET369     -0.1393
    180  CE       -19.7910   62.2520   36.6450 C.3   369  MET369      0.0692
    181  N        -25.7440   61.9520   35.7170 N.3   372  THR372     -0.1218
    182  CA       -25.6580   62.1700   37.1670 C.3   372  THR372      0.1862
    183  C        -26.5740   63.3280   37.5800 C.2   372  THR372      0.2287
    184  O        -27.3420   63.2080   38.5350 O.2   372  THR372     -0.2866
    185  CB       -24.2020   62.4360   37.6100 C.3   372  THR372      0.1770
    186  OG1      -23.4020   61.2750   37.3470 O.3   372  THR372     -0.2211
    187  CG2      -24.1220   62.7710   39.1040 C.3   372  THR372      0.0375
@<TRIPOS>BOND
     1   106   107    1
     2   108   107    1
     3   108   109    2
     4   107   110    1
     5   100    99    2
     6   112   111    1
     7   110   111    1
     8   111   113    1
     9    99    98    1
    10    97    98    1
    11   105   104    1
    12    98   101    1
    13   101   102    1
    14   104   103    1
    15   102   103    1
    16   126   125    1
    17   121   122    1
    18   147   146    1
    19   114   115    1
    20   119   118    1
    21   125   122    1
    22   125   127    1
    23   122   123    1
    24   146   145   ar
    25   146   144   ar
    26     1     2    1
    27   145   143   ar
    28   123   124    2
    29   117   116    2
    30   115   118    1
    31   115   116    1
    32   118   120    1
    33    96    94    1
    34   144   142   ar
    35     2     5    1
    36     2     3    1
    37     5     6    1
    38   143   141   ar
    39     3     4    2
    40    92    91    1
    41    92    93    2
    42    94    95    1
    43    94    91    1
    44    91    90    1
    45   142   141   ar
    46     8     6    1
    47   141   140    1
    48     6     7    1
    49    85    84    2
    50   135   133    1
    51    90    84   am
    52   128   129    1
    53    84    83    1
    54   133   132    1
    55   140   137    1
    56   132   129    1
    57   132   134    1
    58   136   137    1
    59   136   130   am
    60   129   130    1
    61    74    73    2
    62   137   138    1
    63   139   138    2
    64    77    79   ar
    65    77    76   ar
    66    73    82   am
    67    73    72    1
    68    83    82    1
    69    83    86    1
    70   130   131    2
    71    72    75    1
    72    72    71    1
    73   138   148   am
    74    79    81   ar
    75    75    76    1
    76   152   149    1
    77    88    86    1
    78    76    78   ar
    79    86    87    1
    80   148   149    1
    81    81    80   ar
    82   149   150    1
    83     9    10    1
    84    78    80   ar
    85   156   155    2
    86    87    89    1
    87    15    13    1
    88   172   170   ar
    89   150   151    2
    90   150   153   am
    91    12    11    2
    92   158   159    1
    93   158   161    1
    94   158   157    1
    95   159   160    2
    96   153   154    1
    97    10    13    1
    98    10    11    1
    99   155   157   am
   100   155   154    1
   101   171   170   ar
   102    13    14    1
   103   170   169    1
   104   161   163    1
   105   161   162    1
   106   164   165    1
   107   169   168    1
   108    14    16    1
   109    24    23    1
   110    30    29    1
   111   165   168    1
   112   165   166    1
   113    29    31    1
   114    29    26    1
   115   173   166   am
   116   173   174    1
   117   166   167    2
   118    17    18    1
   119    28    27    2
   120    25    26    1
   121    25    19   am
   122    26    27    1
   123    23    22    1
   124   175   174    1
   125   175   176    2
   126    27    32   am
   127   174   177    1
   128   177   178    1
   129    22    21    1
   130    62    61    1
   131    21    18    1
   132    46    45    1
   133    46    47    1
   134    18    19    1
   135    42    41    1
   136    42    45    1
   137    42    43    1
   138   178   179    1
   139    35    34    2
   140    19    20    2
   141    32    33    1
   142    41    34   am
   143    41    47    1
   144    54    55    1
   145    54    53    1
   146    34    33    1
   147    44    43    2
   148    33    36    1
   149    57    55   am
   150    57    58    1
   151    55    56    2
   152   181   182    1
   153    61    58    1
   154    58    59    1
   155    53    50   am
   156    51    50    2
   157   180   179    1
   158    50    49    1
   159    36    37    1
   160   182   183    1
   161   182   185    1
   162   186   185    1
   163    37    38    1
   164   183   184    2
   165    59    60    2
   166    59    63   am
   167   185   187    1
   168    48    49    1
   169    49    52    1
   170    63    64    1
   171    38    40   ar
   172    38    39   ar
   173    64    65    1
   174    64    67    1
   175    65    66    2
   176    67    68    1
   177    68    69   ar
   178    68    70   ar
