@<TRIPOS>MOLECULE
tmp/2pgfA00.pdb
 174 163 0 0 0
SMALL
GASTEIGER

@<TRIPOS>ATOM
      1  N         27.4060   18.7140   32.9260 N.3    39  HIS39      -0.1241
      2  CA        28.8250   18.7170   33.2510 C.3    39  HIS39       0.1621
      3  C         29.3240   17.2790   33.3220 C.2    39  HIS39       0.2264
      4  O         29.0470   16.5520   34.2900 O.2    39  HIS39      -0.2867
      5  CB        29.0740   19.4280   34.5890 C.3    39  HIS39       0.0745
      6  CG        28.6860   20.8760   34.5920 C.ar   39  HIS39       0.0817
      7  ND1       29.6090   21.8980   34.7000 N.ar   39  HIS39      -0.2268
      8  CD2       27.4730   21.4720   34.5080 C.ar   39  HIS39       0.1154
      9  CE1       28.9780   23.0590   34.6790 C.ar   39  HIS39       0.1986
     10  NE2       27.6810   22.8270   34.5650 N.ar   39  HIS39      -0.2212
     11  N         32.1910   16.0650   33.9370 N.3    41  ASP41      -0.1225
     12  CA        33.0380   15.8050   35.1080 C.3    41  ASP41       0.1805
     13  C         32.2660   15.6420   36.4290 C.2    41  ASP41       0.2597
     14  O         32.8490   15.2130   37.4280 O.2    41  ASP41      -0.2718
     15  CB        34.2020   16.8210   35.2410 C.3    41  ASP41       0.1424
     16  CG        33.8080   18.2800   34.9330 C.2    41  ASP41       0.3668
     17  OD1       32.6040   18.6090   34.8080 O.co2  41  ASP41      -0.2456
     18  OD2       34.7450   19.1140   34.8280 O.co2  41  ASP41      -0.2456
     19  N         30.9680   15.9520   36.4270 N.am   42  LEU42      -0.1979
     20  CA        30.0820   15.6830   37.5620 C.3    42  LEU42       0.1596
     21  C         28.8380   14.9100   37.1000 C.2    42  LEU42       0.2287
     22  O         27.7310   15.1060   37.6040 O.2    42  LEU42      -0.2864
     23  CB        29.6990   16.9940   38.2580 C.3    42  LEU42       0.0297
     24  CG        30.8670   17.7580   38.9020 C.3    42  LEU42       0.0022
     25  CD1       30.4570   19.1910   39.2780 C.3    42  LEU42       0.0001
     26  CD2       31.4200   16.9860   40.1260 C.3    42  LEU42       0.0001
     27  N         24.4950   27.9770   45.5460 N.3    80  LEU80      -0.1245
     28  CA        25.5170   27.6220   44.5620 C.3    80  LEU80       0.1561
     29  C         26.9040   27.5490   45.2190 C.2    80  LEU80       0.2260
     30  O         27.7080   26.6780   44.8940 O.2    80  LEU80      -0.2867
     31  CB        25.5320   28.6360   43.4080 C.3    80  LEU80       0.0270
     32  CG        26.6430   28.4850   42.3620 C.3    80  LEU80       0.0019
     33  CD1       26.5860   27.0870   41.7240 C.3    80  LEU80       0.0001
     34  CD2       26.5520   29.5830   41.2980 C.3    80  LEU80       0.0001
     35  N         27.3630   24.2350   46.8120 N.3    83  PHE83      -0.1227
     36  CA        27.5440   23.2570   45.7490 C.3    83  PHE83       0.1736
     37  C         28.9860   23.2340   45.2220 C.2    83  PHE83       0.2595
     38  O         29.5940   22.1670   45.0770 O.2    83  PHE83      -0.2718
     39  CB        26.5760   23.5470   44.5960 C.3    83  PHE83       0.0547
     40  CG        26.8370   22.7300   43.3690 C.ar   83  PHE83      -0.0202
     41  CD1       26.2150   21.5010   43.1900 C.ar   83  PHE83      -0.0042
     42  CD2       27.7060   23.1920   42.3840 C.ar   83  PHE83      -0.0042
     43  CE1       26.4610   20.7450   42.0630 C.ar   83  PHE83      -0.0003
     44  CE2       27.9600   22.4360   41.2490 C.ar   83  PHE83      -0.0003
     45  CZ        27.3360   21.2130   41.0830 C.ar   83  PHE83      -0.0000
     46  N         29.5160   24.4130   44.9290 N.am   84  VAL84      -0.1980
     47  CA        30.8750   24.5400   44.4100 C.3    84  VAL84       0.1595
     48  C         31.8950   23.9390   45.3850 C.2    84  VAL84       0.2287
     49  O         32.8190   23.2420   44.9690 O.2    84  VAL84      -0.2864
     50  CB        31.2180   26.0090   44.0950 C.3    84  VAL84       0.0276
     51  CG1       32.6880   26.1480   43.7070 C.3    84  VAL84       0.0022
     52  CG2       30.3080   26.5400   42.9670 C.3    84  VAL84       0.0022
     53  N         31.5630   20.0910   45.2690 N.3    87  ALA87      -0.1245
     54  CA        32.1240   19.5600   44.0280 C.3    87  ALA87       0.1562
     55  C         33.6450   19.4170   44.1080 C.2    87  ALA87       0.2260
     56  O         34.2130   18.4780   43.5430 O.2    87  ALA87      -0.2867
     57  CB        31.7220   20.4390   42.8400 C.3    87  ALA87       0.0290
     58  N         35.4580   20.9750   32.7830 N.3   123  SER123     -0.1217
     59  CA        36.5060   21.9130   33.1320 C.3   123  SER123      0.1889
     60  C         37.8400   21.1890   33.2570 C.2   123  SER123      0.2288
     61  O         38.0540   20.4420   34.2100 O.2   123  SER123     -0.2866
     62  CB        36.1510   22.6310   34.4390 C.3   123  SER123      0.2089
     63  OG        37.2620   23.3520   34.9370 O.3   123  SER123     -0.2183
     64  N         39.4050   21.9460   36.6320 N.3   126  PHE126     -0.1241
     65  CA        38.6840   21.2830   37.7140 C.3   126  PHE126      0.1605
     66  C         39.0810   19.8120   37.8400 C.2   126  PHE126      0.2264
     67  O         39.2410   19.2980   38.9440 O.2   126  PHE126     -0.2867
     68  CB        37.1760   21.4050   37.4930 C.3   126  PHE126      0.0534
     69  CG        36.3460   20.6810   38.5100 C.ar  126  PHE126     -0.0203
     70  CD1       36.2370   21.1650   39.8100 C.ar  126  PHE126     -0.0042
     71  CD2       35.6570   19.5190   38.1660 C.ar  126  PHE126     -0.0042
     72  CE1       35.4690   20.5000   40.7500 C.ar  126  PHE126     -0.0003
     73  CE2       34.8900   18.8450   39.1010 C.ar  126  PHE126     -0.0003
     74  CZ        34.7920   19.3340   40.3950 C.ar  126  PHE126     -0.0000
     75  N         34.9760   24.3590   29.6990 N.3   163  ILE163     -0.1245
     76  CA        34.6070   25.3120   30.7650 C.3   163  ILE163      0.1561
     77  C         35.8650   25.9140   31.4030 C.2   163  ILE163      0.2260
     78  O         36.7140   25.1820   31.8970 O.2   163  ILE163     -0.2867
     79  CB        33.7910   24.6280   31.8930 C.3   163  ILE163      0.0252
     80  CG1       32.6360   23.7890   31.3270 C.3   163  ILE163      0.0019
     81  CG2       33.2250   25.6680   32.8870 C.3   163  ILE163      0.0019
     82  CD1       31.9180   22.9330   32.4090 C.3   163  ILE163      0.0001
     83  N         36.5280   27.9530   34.6700 N.3   165  ASP165     -0.1225
     84  CA        35.6970   28.1300   35.8610 C.3   165  ASP165      0.1805
     85  C         36.3960   28.8770   36.9890 C.2   165  ASP165      0.2598
     86  O         37.6060   29.1400   36.9370 O.2   165  ASP165     -0.2718
     87  CB        35.1140   26.7860   36.3420 C.3   165  ASP165      0.1424
     88  CG        36.1660   25.7080   36.5390 C.2   165  ASP165      0.3668
     89  OD1       37.3610   25.9550   36.2850 O.co2 165  ASP165     -0.2456
     90  OD2       35.7840   24.5960   36.9660 O.co2 165  ASP165     -0.2456
     91  N         35.5980   29.2510   37.9820 N.am  166  THR166     -0.1953
     92  CA        36.0600   30.0070   39.1440 C.3   166  THR166      0.1897
     93  C         35.6440   29.2640   40.4110 C.2   166  THR166      0.2313
     94  O         34.5420   28.7250   40.4760 O.2   166  THR166     -0.2863
     95  CB        35.4190   31.4100   39.1410 C.3   166  THR166      0.1794
     96  OG1       35.7900   32.0890   37.9350 O.3   166  THR166     -0.2208
     97  CG2       35.8500   32.2440   40.3610 C.3   166  THR166      0.0378
     98  N         37.8290   26.9710   42.4280 N.3   168  HIS168     -0.1241
     99  CA        38.6570   25.8560   42.8880 C.3   168  HIS168      0.1621
    100  C         40.1200   26.2400   42.7230 C.2   168  HIS168      0.2264
    101  O         40.4370   27.2060   42.0150 O.2   168  HIS168     -0.2867
    102  CB        38.3460   24.5600   42.1190 C.3   168  HIS168      0.0745
    103  CG        38.6870   24.6260   40.6630 C.ar  168  HIS168      0.0817
    104  ND1       39.9670   24.4210   40.1880 N.ar  168  HIS168     -0.2268
    105  CD2       37.9220   24.8950   39.5780 C.ar  168  HIS168      0.1154
    106  CE1       39.9750   24.5720   38.8750 C.ar  168  HIS168      0.1986
    107  NE2       38.7450   24.8500   38.4790 N.ar  168  HIS168     -0.2212
    108  N         31.7030   28.5070   34.4100 N.3   193  GLY193     -0.1210
    109  CA        30.9010   28.0530   35.5470 C.3   193  GLY193      0.1956
    110  C         31.6540   28.1740   36.8570 C.2   193  GLY193      0.2612
    111  O         32.7050   28.8230   36.9240 O.2   193  GLY193     -0.2717
    112  N         31.1150   27.5350   37.8950 N.am  194  GLY194     -0.1956
    113  CA        31.6110   27.6840   39.2480 C.3   194  GLY194      0.1869
    114  C         30.8720   28.8390   39.8910 C.2   194  GLY194      0.2309
    115  O         29.6630   28.9890   39.6920 O.2   194  GLY194     -0.2863
    116  N         27.3480   30.3710   32.2070 N.3   219  HIS219     -0.1241
    117  CA        26.4470   30.3700   33.3480 C.3   219  HIS219      0.1621
    118  C         26.1880   31.8160   33.7540 C.2   219  HIS219      0.2264
    119  O         27.1280   32.5630   34.0340 O.2   219  HIS219     -0.2867
    120  CB        27.0620   29.6490   34.5470 C.3   219  HIS219      0.0745
    121  CG        27.1610   28.1610   34.4080 C.ar  219  HIS219      0.0817
    122  ND1       27.9520   27.5400   33.4600 N.ar  219  HIS219     -0.2268
    123  CD2       26.6340   27.1680   35.1660 C.ar  219  HIS219      0.1154
    124  CE1       27.8690   26.2280   33.6170 C.ar  219  HIS219      0.1986
    125  NE2       27.0850   25.9790   34.6480 N.ar  219  HIS219     -0.2212
    126  N         21.7750   32.3270   37.3850 N.3   222  GLU222     -0.1245
    127  CA        21.4680   31.1550   38.1970 C.3   222  GLU222      0.1567
    128  C         21.3410   31.5580   39.6560 C.2   222  GLU222      0.2260
    129  O         20.3710   31.2030   40.3170 O.2   222  GLU222     -0.2867
    130  CB        22.5670   30.0910   38.0820 C.3   222  GLU222      0.0388
    131  CG        22.3120   28.8420   38.9530 C.3   222  GLU222      0.1160
    132  CD        23.4970   27.8900   39.0140 C.2   222  GLU222      0.3649
    133  OE1       24.5630   28.2170   38.4500 O.co2 222  GLU222     -0.2457
    134  OE2       23.3540   26.8190   39.6340 O.co2 222  GLU222     -0.2457
    135  N         21.4840   28.1150   32.6360 N.3   246  HIS246     -0.1241
    136  CA        20.4350   28.4910   33.5870 C.3   246  HIS246      0.1621
    137  C         19.6270   29.6850   33.0830 C.2   246  HIS246      0.2264
    138  O         18.5760   29.5010   32.4660 O.2   246  HIS246     -0.2867
    139  CB        20.9930   28.7420   35.0030 C.3   246  HIS246      0.0745
    140  CG        21.6940   27.5620   35.5880 C.ar  246  HIS246      0.0817
    141  ND1       21.0340   26.5850   36.2980 N.ar  246  HIS246     -0.2268
    142  CD2       22.9940   27.1900   35.5540 C.ar  246  HIS246      0.1154
    143  CE1       21.8970   25.6620   36.6810 C.ar  246  HIS246      0.1986
    144  NE2       23.0940   26.0040   36.2410 N.ar  246  HIS246     -0.2212
    145  N         18.4640   21.0910   39.6180 N.3   272  SER272     -0.1217
    146  CA        19.5920   21.8610   40.1390 C.3   272  SER272      0.1889
    147  C         19.1270   23.1280   40.8640 C.2   272  SER272      0.2288
    148  O         19.5800   23.4190   41.9660 O.2   272  SER272     -0.2866
    149  CB        20.5380   22.2590   39.0130 C.3   272  SER272      0.2089
    150  OG        21.5620   23.0960   39.5280 O.3   272  SER272     -0.2183
    151  N         19.6360   23.7830   44.8990 N.3   276  LEU276     -0.1245
    152  CA        20.5590   24.8650   45.2860 C.3   276  LEU276      0.1561
    153  C         19.8260   26.1080   45.8130 C.2   276  LEU276      0.2260
    154  O         20.4550   27.1180   46.0900 O.2   276  LEU276     -0.2867
    155  CB        21.4700   25.2550   44.1010 C.3   276  LEU276      0.0270
    156  CG        22.7120   24.3840   43.8800 C.3   276  LEU276      0.0019
    157  CD1       22.3500   22.9360   43.6140 C.3   276  LEU276      0.0001
    158  CD2       23.5700   24.9390   42.7360 C.3   276  LEU276      0.0001
    159  N         22.1940   19.1710   34.3120 N.3   301  ASP301     -0.1225
    160  CA        23.2920   19.8820   34.9800 C.3   301  ASP301      0.1805
    161  C         24.4040   18.9480   35.5100 C.2   301  ASP301      0.2597
    162  O         25.4820   18.8610   34.9200 O.2   301  ASP301     -0.2718
    163  CB        22.7380   20.7890   36.0890 C.3   301  ASP301      0.1424
    164  CG        23.6460   21.9520   36.4100 C.2   301  ASP301      0.3668
    165  OD1       24.6380   22.1390   35.6970 O.co2 301  ASP301     -0.2456
    166  OD2       23.3750   22.6720   37.3890 O.co2 301  ASP301     -0.2456
    167  N         24.1510   18.2560   36.6200 N.am  302  ASP302     -0.1974
    168  CA        25.1750   17.4640   37.3020 C.3   302  ASP302      0.1709
    169  C         24.5430   16.2070   37.8950 C.2   302  ASP302      0.2293
    170  O         24.3370   16.1230   39.1100 O.2   302  ASP302     -0.2864
    171  CB        25.8160   18.2580   38.4400 C.3   302  ASP302      0.1436
    172  CG        26.4450   19.5520   37.9850 C.2   302  ASP302      0.3671
    173  OD1       27.6090   19.5430   37.5320 O.co2 302  ASP302     -0.2456
    174  OD2       25.7800   20.5910   38.1340 O.co2 302  ASP302     -0.2456
@<TRIPOS>BOND
     1    75    76    1
     2    76    77    1
     3    76    79    1
     4    80    79    1
     5    80    82    1
     6    77    78    2
     7    79    81    1
     8   116   117    1
     9   138   137    2
    10   135   136    1
    11    58    59    1
    12     1     2    1
    13   137   136    1
    14    59    60    1
    15    59    62    1
    16     2     3    1
    17     2     5    1
    18    60    61    2
    19     3     4    2
    20   117   118    1
    21   117   120    1
    22   122   124   ar
    23   122   121   ar
    24   136   139    1
    25   124   125   ar
    26   118   119    2
    27    11    12    1
    28   159   160    1
    29   121   120    1
    30   121   123   ar
    31   108   109    1
    32    62    63    1
    33     8    10   ar
    34     8     6   ar
    35    10     9   ar
    36     5     6    1
    37     6     7   ar
    38   125   123   ar
    39    83    84    1
    40     9     7   ar
    41    17    16   ar
    42    18    16   ar
    43   162   161    2
    44    16    15    1
    45   160   161    1
    46   160   163    1
    47   139   140    1
    48    12    15    1
    49    12    13    1
    50   161   167   am
    51   109   110    1
    52   142   140   ar
    53   142   144   ar
    54   140   141   ar
    55   165   164   ar
    56    84    87    1
    57    84    85    1
    58   163   164    1
    59   144   143   ar
    60    89    88   ar
    61   141   143   ar
    62    87    88    1
    63   164   166   ar
    64    19    13   am
    65    19    20    1
    66    13    14    2
    67    88    90   ar
    68   167   168    1
    69    64    65    1
    70   110   111    2
    71   110   112   am
    72    86    85    2
    73    85    91   am
    74    21    20    1
    75    21    22    2
    76   168   169    1
    77   168   171    1
    78   126   127    1
    79    68    65    1
    80    68    69    1
    81   173   172   ar
    82    20    23    1
    83    65    66    1
    84    66    67    2
    85   112   113    1
    86   169   170    2
    87    96    95    1
    88    91    92    1
    89   172   174   ar
    90   172   171    1
    91   130   127    1
    92   130   131    1
    93    71    69   ar
    94    71    73   ar
    95   127   128    1
    96    23    24    1
    97   133   132   ar
    98   107   106   ar
    99   107   105   ar
   100    69    70   ar
   101   106   104   ar
   102    24    25    1
   103    24    26    1
   104   131   132    1
   105   149   150    1
   106   149   146    1
   107   132   134   ar
   108    73    74   ar
   109    95    92    1
   110    95    97    1
   111    92    93    1
   112   113   114    1
   113   105   103   ar
   114   145   146    1
   115   128   129    2
   116   115   114    2
   117    70    72   ar
   118   146   147    1
   119   104   103   ar
   120    74    72   ar
   121    93    94    2
   122   103   102    1
   123   147   148    2
   124    45    44   ar
   125    45    43   ar
   126    44    42   ar
   127    34    32    1
   128    33    32    1
   129   101   100    2
   130    43    41   ar
   131   102    99    1
   132    32    31    1
   133    42    40   ar
   134    98    99    1
   135   100    99    1
   136   158   156    1
   137    57    54    1
   138    52    50    1
   139    41    40   ar
   140    40    39    1
   141    31    28    1
   142    56    55    2
   143   157   156    1
   144    51    50    1
   145   156   155    1
   146    54    55    1
   147    54    53    1
   148    50    47    1
   149   155   152    1
   150    47    46    1
   151    47    48    1
   152    28    29    1
   153    28    27    1
   154    39    36    1
   155    30    29    2
   156   151   152    1
   157    46    37   am
   158    49    48    2
   159    38    37    2
   160    37    36    1
   161   152   153    1
   162    36    35    1
   163   153   154    2
