@<TRIPOS>MOLECULE
tmp/2pgnB07.pdb
 101 97 0 0 0
SMALL
GASTEIGER

@<TRIPOS>ATOM
      1  N         68.4380   -4.0220   38.8220 N.3   385  LYS385     -0.1231
      2  CA        68.2350   -5.3800   38.2470 C.3   385  LYS385      0.1693
      3  C         68.2720   -5.3510   36.7200 C.2   385  LYS385      0.2592
      4  O         68.5420   -6.3670   36.1020 O.2   385  LYS385     -0.2718
      5  CB        66.9250   -5.9940   38.7570 C.3   385  LYS385      0.0285
      6  CG        66.9670   -6.3390   40.2440 C.3   385  LYS385      0.0035
      7  CD        65.5880   -6.8240   40.7170 C.3   385  LYS385      0.0206
      8  CE        65.5110   -6.8310   42.2200 C.3   385  LYS385      0.1093
      9  NZ        64.3610   -7.6310   42.6770 N.3   385  LYS385     -0.1314
     10  N         68.0280   -4.1760   36.1250 N.am  386  VAL386     -0.1966
     11  CA        68.0170   -3.9820   34.6920 C.3   386  VAL386      0.1727
     12  C         69.0360   -2.9740   34.1640 C.2   386  VAL386      0.2616
     13  O         68.9210   -2.5280   33.0250 O.2   386  VAL386     -0.2715
     14  CB        66.5890   -3.5980   34.1670 C.3   386  VAL386      0.0290
     15  CG1       65.5490   -4.7060   34.4130 C.3   386  VAL386      0.0023
     16  CG2       66.0310   -2.3180   34.7600 C.3   386  VAL386      0.0023
     17  N         70.0470   -2.6860   34.9640 N.am  387  GLN387     -0.1963
     18  CA        71.0310   -1.6320   34.6890 C.3   387  GLN387      0.1733
     19  C         72.3600   -2.2110   34.1460 C.2   387  GLN387      0.2616
     20  O         72.8820   -3.2160   34.6130 O.2   387  GLN387     -0.2715
     21  CB        71.2880   -0.8570   35.9650 C.3   387  GLN387      0.0408
     22  CG        72.0710    0.4620   35.8290 C.3   387  GLN387      0.0908
     23  CD        72.3350    1.0920   37.1910 C.2   387  GLN387      0.2608
     24  OE1       71.6460    0.7570   38.1740 O.2   387  GLN387     -0.2717
     25  NE2       73.2860    2.0580   37.2540 N.am  387  GLN387     -0.0878
     26  N         72.8470   -1.6060   33.0800 N.am  388  ARG388     -0.1977
     27  CA        74.1060   -1.8870   32.4120 C.3   388  ARG388      0.1597
     28  C         75.2250   -0.9620   32.9300 C.2   388  ARG388      0.2287
     29  O         74.9540    0.1580   33.4230 O.2   388  ARG388     -0.2864
     30  CB        73.9220   -1.7010   30.8920 C.3   388  ARG388      0.0334
     31  CG        72.9200   -2.5950   30.2380 C.3   388  ARG388      0.0492
     32  CD        72.3380   -1.9740   28.9900 C.3   388  ARG388      0.2205
     33  NE        73.2850   -1.8730   27.8700 N.pl3 388  ARG388     -0.0865
     34  CZ        73.7000   -0.7680   27.2690 C.cat 388  ARG388      0.5346
     35  NH1       73.4040    0.4370   27.7600 N.pl3 388  ARG388      0.1354
     36  NH2       74.4280   -0.8560   26.1770 N.pl3 388  ARG388      0.1354
     37  N         71.0800   11.7070   27.1090 N.3   436  GLN436     -0.1245
     38  CA        70.7230   10.6500   26.1730 C.3   436  GLN436      0.1566
     39  C         71.2210   10.9800   24.7530 C.2   436  GLN436      0.2260
     40  O         71.7110   10.0920   24.0430 O.2   436  GLN436     -0.2867
     41  CB        69.2190   10.4340   26.1370 C.3   436  GLN436      0.0367
     42  CG        68.7930    9.3840   25.1240 C.3   436  GLN436      0.0905
     43  CD        69.0950    7.9880   25.5320 C.2   436  GLN436      0.2608
     44  OE1       68.2090    7.3360   26.0770 O.2   436  GLN436     -0.2717
     45  NE2       70.3440    7.5110   25.3170 N.am  436  GLN436     -0.0878
     46  N         74.1620    7.8150   23.1650 N.3   440  PRO440     -0.2102
     47  CA        73.1140    6.9470   22.6140 C.3   440  PRO440      0.1504
     48  C         73.3210    5.4500   22.9380 C.2   440  PRO440      0.2576
     49  O         72.3970    4.6810   22.7110 O.2   440  PRO440     -0.2718
     50  CB        73.2070    7.1700   21.0750 C.3   440  PRO440      0.0282
     51  CG        74.6080    7.7440   20.8870 C.3   440  PRO440      0.0208
     52  CD        74.8510    8.5970   22.1090 C.3   440  PRO440      0.0893
     53  N         74.4740    4.9830   23.4550 N.am  441  ASN441     -0.1961
     54  CA        74.5680    3.5940   23.9310 C.3   441  ASN441      0.1819
     55  C         74.2870    3.4390   25.4120 C.2   441  ASN441      0.2622
     56  O         74.4350    2.3390   25.9310 O.2   441  ASN441     -0.2715
     57  CB        75.8250    2.8710   23.5210 C.3   441  ASN441      0.1195
     58  CG        75.5560    1.2650   23.4660 C.2   441  ASN441      0.2630
     59  OD1       74.4530    0.7340   23.0340 O.2   441  ASN441     -0.2716
     60  ND2       76.4470    0.5670   24.0000 N.am  441  ASN441     -0.0877
     61  N         73.7620    4.4750   26.0580 N.am  442  SER442     -0.1936
     62  CA        73.3650    4.4020   27.4700 C.3   442  SER442      0.2055
     63  C         71.8380    4.3890   27.5810 C.2   442  SER442      0.2642
     64  O         71.1390    5.2060   26.9260 O.2   442  SER442     -0.2714
     65  CB        73.9120    5.5980   28.2530 C.3   442  SER442      0.2130
     66  OG        75.3380    5.6820   28.2110 O.3   442  SER442     -0.2179
     67  N         71.2930    3.5070   28.4300 N.am  443  ARG443     -0.1977
     68  CA        69.9350    3.6440   28.9550 C.3   443  ARG443      0.1597
     69  C         69.9860    4.6880   30.0590 C.2   443  ARG443      0.2287
     70  O         70.9170    4.6880   30.8820 O.2   443  ARG443     -0.2864
     71  CB        69.2960    2.3390   29.4100 C.3   443  ARG443      0.0334
     72  CG        67.8680    2.4560   29.7950 C.3   443  ARG443      0.0492
     73  CD        67.1290    1.1350   29.6990 C.3   443  ARG443      0.2205
     74  NE        66.8730    0.7790   28.3090 N.pl3 443  ARG443     -0.0865
     75  CZ        67.5350   -0.1390   27.6150 C.cat 443  ARG443      0.5346
     76  NH1       67.2100   -0.3560   26.3330 N.pl3 443  ARG443      0.1354
     77  NH2       68.4770   -0.8670   28.1580 N.pl3 443  ARG443      0.1354
     78  N         64.6350    7.3820   24.4090 N.3   469  PRO469     -0.2116
     79  CA        63.8860    6.4490   25.2720 C.3   469  PRO469      0.1372
     80  C         64.2770    6.5070   26.7540 C.2   469  PRO469      0.2244
     81  O         64.5610    5.4670   27.3800 O.2   469  PRO469     -0.2868
     82  CB        64.1990    5.1130   24.6320 C.3   469  PRO469      0.0268
     83  CG        65.5730    5.2290   24.1790 C.3   469  PRO469      0.0207
     84  CD        65.6710    6.6590   23.6670 C.3   469  PRO469      0.0892
     85  N         60.0910   -2.9890   32.8780 N.3   529  GLN529     -0.1245
     86  CA        60.2520   -3.8690   31.7110 C.3   529  GLN529      0.1566
     87  C         59.3470   -3.4240   30.5360 C.2   529  GLN529      0.2260
     88  O         59.8120   -3.3860   29.3880 O.2   529  GLN529     -0.2867
     89  CB        60.0310   -5.3410   32.0340 C.3   529  GLN529      0.0367
     90  CG        60.4980   -6.1850   30.8970 C.3   529  GLN529      0.0905
     91  CD        62.0170   -6.0680   30.5130 C.2   529  GLN529      0.2608
     92  OE1       62.9050   -6.2010   31.3580 O.2   529  GLN529     -0.2717
     93  NE2       62.3040   -5.8240   29.2150 N.am  529  GLN529     -0.0878
     94  N         60.8780   -0.2590   28.9560 N.3   532  ILE532     -0.1245
     95  CA        62.0240   -0.6480   28.1070 C.3   532  ILE532      0.1561
     96  C         61.5240   -1.2410   26.7770 C.2   532  ILE532      0.2260
     97  O         61.9600   -0.8180   25.6990 O.2   532  ILE532     -0.2867
     98  CB        62.9700   -1.5800   28.8690 C.3   532  ILE532      0.0252
     99  CG1       63.6580   -0.7670   30.0030 C.3   532  ILE532      0.0019
    100  CG2       63.9880   -2.2170   27.9130 C.3   532  ILE532      0.0019
    101  CD1       64.5240   -1.5900   30.9640 C.3   532  ILE532      0.0001
@<TRIPOS>BOND
     1    51    50    1
     2    51    52    1
     3    50    47    1
     4    52    46    1
     5    47    48    1
     6    47    46    1
     7    49    48    2
     8    48    53   am
     9    59    58    2
    10    53    54    1
    11    58    57    1
    12    58    60   am
    13    57    54    1
    14    84    83    1
    15    84    78    1
    16    54    55    1
    17    40    39    2
    18    83    82    1
    19    78    79    1
    20    82    79    1
    21    39    38    1
    22    42    43    1
    23    42    41    1
    24    79    80    1
    25    45    43   am
    26    55    56    2
    27    55    61   am
    28    43    44    2
    29    97    96    2
    30    61    62    1
    31    41    38    1
    32    38    37    1
    33    36    34    1
    34    76    75    1
    35    80    81    2
    36    96    95    1
    37    64    63    2
    38    34    35    1
    39    34    33    2
    40    62    63    1
    41    62    65    1
    42    63    67   am
    43    75    77    1
    44    75    74    2
    45    33    32    1
    46   100    98    1
    47    95    98    1
    48    95    94    1
    49    66    65    1
    50    74    73    1
    51    67    68    1
    52    98    99    1
    53    68    71    1
    54    68    69    1
    55    32    31    1
    56    93    91   am
    57    88    87    2
    58    71    72    1
    59    73    72    1
    60    99   101    1
    61    69    70    2
    62    31    30    1
    63    91    90    1
    64    91    92    2
    65    87    86    1
    66    30    27    1
    67    90    89    1
    68    86    89    1
    69    86    85    1
    70    27    28    1
    71    27    26    1
    72    28    29    2
    73    13    12    2
    74    26    19   am
    75    19    20    2
    76    19    18    1
    77    12    11    1
    78    12    17   am
    79    14    15    1
    80    14    11    1
    81    14    16    1
    82    18    17    1
    83    18    21    1
    84    11    10    1
    85    22    21    1
    86    22    23    1
    87     4     3    2
    88    10     3   am
    89     3     2    1
    90    23    25   am
    91    23    24    2
    92     2     5    1
    93     2     1    1
    94     5     6    1
    95     6     7    1
    96     7     8    1
    97     8     9    1
