@<TRIPOS>MOLECULE
tmp/2pgnB03.pdb
 167 163 0 0 0
SMALL
GASTEIGER

@<TRIPOS>ATOM
      1  N         77.7960   22.2770   49.4560 N.3   284  TRP284     -0.1241
      2  CA        76.8710   21.1280   49.5310 C.3   284  TRP284      0.1605
      3  C         77.4930   19.7940   49.1640 C.2   284  TRP284      0.2264
      4  O         76.7890   18.7870   49.0250 O.2   284  TRP284     -0.2867
      5  CB        75.5930   21.4470   48.7210 C.3   284  TRP284      0.0550
      6  CG        74.6500   22.4040   49.3840 C.ar  284  TRP284      0.0003
      7  CD1       74.9200   23.2050   50.4250 C.ar  284  TRP284      0.0946
      8  CD2       73.2860   22.6090   49.0330 C.ar  284  TRP284      0.0152
      9  NE1       73.8260   23.9300   50.7430 N.ar  284  TRP284     -0.2442
     10  CE2       72.7890   23.5930   49.9140 C.ar  284  TRP284      0.0810
     11  CE3       72.4440   22.1070   48.0330 C.ar  284  TRP284      0.0012
     12  CZ2       71.4510   24.0520   49.8480 C.ar  284  TRP284      0.0191
     13  CZ3       71.1380   22.5380   47.9800 C.ar  284  TRP284      0.0001
     14  CH2       70.6470   23.5120   48.8620 C.ar  284  TRP284      0.0015
     15  N         61.5860    4.7480   47.7850 N.3   376  MET376     -0.1245
     16  CA        62.4520    5.1400   46.6380 C.3   376  MET376      0.1570
     17  C         63.7080    4.2830   46.5610 C.2   376  MET376      0.2261
     18  O         64.2410    4.0740   45.4830 O.2   376  MET376     -0.2867
     19  CB        62.7490    6.6130   46.6580 C.3   376  MET376      0.0387
     20  CG        61.4860    7.4710   46.3650 C.3   376  MET376      0.0595
     21  SD        61.6550    9.2570   46.4760 S.3   376  MET376     -0.1393
     22  CE        61.4790    9.4670   48.2590 C.3   376  MET376      0.0692
     23  N         66.0040   17.6810   42.3500 N.3   397  ILE397     -0.1231
     24  CA        66.3490   18.2240   43.6500 C.3   397  ILE397      0.1692
     25  C         65.1740   18.1170   44.6350 C.2   397  ILE397      0.2593
     26  O         64.1010   18.6750   44.3610 O.2   397  ILE397     -0.2718
     27  CB        66.7360   19.7090   43.4840 C.3   397  ILE397      0.0266
     28  CG1       67.7720   19.9260   42.3490 C.3   397  ILE397      0.0019
     29  CG2       67.2860   20.3320   44.8000 C.3   397  ILE397      0.0020
     30  CD1       69.0010   19.0740   42.4380 C.3   397  ILE397      0.0001
     31  N         65.3870   17.4980   45.8020 N.am  398  GLY398     -0.1942
     32  CA        64.3010   17.3380   46.7630 C.3   398  GLY398      0.2014
     33  C         64.6060   16.1780   47.7230 C.2   398  GLY398      0.2639
     34  O         65.7550   15.6630   47.7750 O.2   398  GLY398     -0.2714
     35  N         63.5920   15.7490   48.4880 N.am  399  ASN399     -0.1958
     36  CA        63.7700   14.5430   49.3340 C.3   399  ASN399      0.1819
     37  C         64.3310   13.3930   48.5150 C.2   399  ASN399      0.2621
     38  O         65.2020   12.6400   48.9880 O.2   399  ASN399     -0.2715
     39  CB        62.4830   14.1510   50.0300 C.3   399  ASN399      0.1195
     40  CG        62.3020   14.7660   51.3940 C.2   399  ASN399      0.2630
     41  OD1       63.2400   15.3120   51.9940 O.2   399  ASN399     -0.2716
     42  ND2       61.0870   14.6270   51.9330 N.am  399  ASN399     -0.0877
     43  N         63.8330   13.2270   47.2800 N.am  400  HIS400     -0.1973
     44  CA        64.1660   12.0870   46.4040 C.3   400  HIS400      0.1656
     45  C         65.6590   12.0750   46.0480 C.2   400  HIS400      0.2291
     46  O         66.1580   11.0190   45.6560 O.2   400  HIS400     -0.2864
     47  CB        63.3210   12.0780   45.1230 C.3   400  HIS400      0.0771
     48  CG        63.5100   13.2710   44.2150 C.ar  400  HIS400      0.0820
     49  ND1       62.8690   14.4640   44.4110 N.ar  400  HIS400     -0.2267
     50  CD2       64.2130   13.4100   43.0490 C.ar  400  HIS400      0.1154
     51  CE1       63.2790   15.3330   43.4670 C.ar  400  HIS400      0.1986
     52  NE2       64.0690   14.7060   42.6060 N.ar  400  HIS400     -0.2212
     53  N         71.6490   23.1550   42.8490 N.3   423  GLY423     -0.1210
     54  CA        70.3730   22.5910   43.2860 C.3   423  GLY423      0.1956
     55  C         69.1630   23.3040   42.7040 C.2   423  GLY423      0.2612
     56  O         68.2170   23.6010   43.4310 O.2   423  GLY423     -0.2717
     57  N         69.1620   23.5320   41.3950 N.am  424  ILE424     -0.1965
     58  CA        68.0700   24.2390   40.7300 C.3   424  ILE424      0.1727
     59  C         66.9430   23.2480   40.3140 C.2   424  ILE424      0.2616
     60  O         67.1530   22.3450   39.4420 O.2   424  ILE424     -0.2715
     61  CB        68.5410   25.0450   39.5080 C.3   424  ILE424      0.0290
     62  CG1       69.6500   26.0220   39.9630 C.3   424  ILE424      0.0022
     63  CG2       67.3340   25.8290   38.8810 C.3   424  ILE424      0.0023
     64  CD1       70.3300   26.8950   38.9030 C.3   424  ILE424      0.0001
     65  N         65.7950   23.3990   40.9390 N.am  425  LEU425     -0.1977
     66  CA        64.6340   22.5350   40.6940 C.3   425  LEU425      0.1596
     67  C         64.2410   22.5600   39.1850 C.2   425  LEU425      0.2287
     68  O         64.1380   23.6260   38.5460 O.2   425  LEU425     -0.2864
     69  CB        63.4540   22.9840   41.5650 C.3   425  LEU425      0.0297
     70  CG        62.2460   22.0970   41.7220 C.3   425  LEU425      0.0022
     71  CD1       62.5790   20.6900   42.2180 C.3   425  LEU425      0.0001
     72  CD2       61.2270   22.7140   42.6110 C.3   425  LEU425      0.0001
     73  N         61.1430   14.0300   41.4510 N.3   449  GLY449     -0.1210
     74  CA        59.9670   14.4880   42.1480 C.3   449  GLY449      0.1956
     75  C         58.8820   15.0000   41.2280 C.2   449  GLY449      0.2612
     76  O         59.1340   15.3680   40.0710 O.2   449  GLY449     -0.2717
     77  N         57.6890   15.1230   41.7730 N.am  450  ASP450     -0.1959
     78  CA        56.5400   15.7150   41.0940 C.3   450  ASP450      0.1840
     79  C         56.6430   17.2270   40.9560 C.2   450  ASP450      0.2623
     80  O         56.3550   17.8010   39.8810 O.2   450  ASP450     -0.2715
     81  CB        55.2080   15.2120   41.6960 C.3   450  ASP450      0.1450
     82  CG        55.1060   15.2490   43.2160 C.2   450  ASP450      0.3671
     83  OD1       54.0370   14.7600   43.6930 O.co2 450  ASP450     -0.2456
     84  OD2       56.0090   15.6980   43.9580 O.co2 450  ASP450     -0.2456
     85  N         57.0720   17.9040   42.0210 N.am  451  GLY451     -0.1940
     86  CA        57.3190   19.3330   41.9470 C.3   451  GLY451      0.2014
     87  C         58.3800   19.7170   40.8960 C.2   451  GLY451      0.2638
     88  O         58.2120   20.6920   40.1500 O.2   451  GLY451     -0.2714
     89  N         59.4060   18.8760   40.7980 N.am  452  ALA452     -0.1977
     90  CA        60.4400   19.0550   39.7710 C.3   452  ALA452      0.1597
     91  C         59.9110   18.8030   38.3450 C.2   452  ALA452      0.2287
     92  O         60.1970   19.5910   37.4430 O.2   452  ALA452     -0.2864
     93  CB        61.5830   18.1100   40.0770 C.3   452  ALA452      0.0319
     94  N         58.2500   21.4950   35.9830 N.3   455  TYR455     -0.1241
     95  CA        58.9810   22.5320   35.2510 C.3   455  TYR455      0.1605
     96  C         59.0870   22.3140   33.7460 C.2   455  TYR455      0.2264
     97  O         58.6350   23.1730   32.9760 O.2   455  TYR455     -0.2867
     98  CB        60.3910   22.7430   35.8070 C.3   455  TYR455      0.0534
     99  CG        60.5110   23.5920   37.0630 C.ar  455  TYR455     -0.0201
    100  CD1       60.0070   23.1410   38.2950 C.ar  455  TYR455     -0.0009
    101  CD2       61.1510   24.8060   37.0310 C.ar  455  TYR455     -0.0009
    102  CE1       60.0920   23.9270   39.4440 C.ar  455  TYR455      0.0417
    103  CE2       61.2150   25.6590   38.1820 C.ar  455  TYR455      0.0417
    104  CZ        60.7370   25.1710   39.4010 C.ar  455  TYR455      0.1957
    105  OH        60.8600   25.9030   40.5580 O.3   455  TYR455     -0.2866
    106  N         58.0360   10.3710   41.2220 N.3   475  PHE475     -0.1241
    107  CA        57.7240   10.0060   42.5810 C.3   475  PHE475      0.1605
    108  C         56.6560   10.9840   43.0630 C.2   475  PHE475      0.2264
    109  O         56.9420   12.2150   43.2240 O.2   475  PHE475     -0.2867
    110  CB        58.9690   10.1020   43.4590 C.3   475  PHE475      0.0534
    111  CG        60.0890    9.2050   43.0470 C.ar  475  PHE475     -0.0203
    112  CD1       61.3690    9.7130   42.8560 C.ar  475  PHE475     -0.0042
    113  CD2       59.9120    7.8200   42.8170 C.ar  475  PHE475     -0.0042
    114  CE1       62.4380    8.8700   42.5080 C.ar  475  PHE475     -0.0003
    115  CE2       61.0040    7.0080   42.4730 C.ar  475  PHE475     -0.0003
    116  CZ        62.2560    7.5530   42.3150 C.ar  475  PHE475     -0.0000
    117  N         54.1020   12.6230   45.7260 N.3   477  ASN477     -0.1240
    118  CA        53.6600   12.8510   47.1060 C.3   477  ASN477      0.1653
    119  C         52.7640   14.0790   47.2440 C.2   477  ASN477      0.2266
    120  O         52.3960   14.4760   48.3750 O.2   477  ASN477     -0.2867
    121  CB        54.8350   12.8460   48.1300 C.3   477  ASN477      0.1155
    122  CG        55.9520   13.7730   47.7620 C.2   477  ASN477      0.2627
    123  OD1       55.7530   14.7070   46.9720 O.2   477  ASN477     -0.2716
    124  ND2       57.1380   13.5470   48.3410 N.am  477  ASN477     -0.0877
    125  N         53.4620   17.1840   47.0200 N.3   479  SER479     -0.1202
    126  CA        54.1940   18.0760   47.8860 C.3   479  SER479      0.2020
    127  C         55.6200   18.3120   47.3950 C.2   479  SER479      0.2619
    128  O         56.2760   17.5010   46.7280 O.2   479  SER479     -0.2717
    129  CB        54.2890   17.3740   49.2590 C.3   479  SER479      0.2103
    130  OG        54.8950   18.1460   50.2460 O.3   479  SER479     -0.2182
    131  N         56.1210   19.4910   47.7750 N.am  480  TYR480     -0.1961
    132  CA        57.5630   19.8010   47.8680 C.3   480  TYR480      0.1771
    133  C         57.9670   19.1550   49.1880 C.2   480  TYR480      0.2620
    134  O         58.0320   19.8060   50.2470 O.2   480  TYR480     -0.2715
    135  CB        57.7150   21.3130   47.8720 C.3   480  TYR480      0.0574
    136  CG        57.2340   22.0170   46.5650 C.ar  480  TYR480     -0.0198
    137  CD1       56.2430   23.0080   46.5760 C.ar  480  TYR480     -0.0009
    138  CD2       57.8220   21.6460   45.3190 C.ar  480  TYR480     -0.0009
    139  CE1       55.8130   23.6170   45.3890 C.ar  480  TYR480      0.0417
    140  CE2       57.4070   22.2770   44.1350 C.ar  480  TYR480      0.0417
    141  CZ        56.3980   23.2420   44.1790 C.ar  480  TYR480      0.1957
    142  OH        55.9350   23.8850   43.0390 O.3   480  TYR480     -0.2866
    143  N         58.2430   17.8520   49.1510 N.am  481  GLY481     -0.1940
    144  CA        58.4020   17.0240   50.3420 C.3   481  GLY481      0.2014
    145  C         59.5820   17.4380   51.1900 C.2   481  GLY481      0.2639
    146  O         59.4900   17.4490   52.4450 O.2   481  GLY481     -0.2714
    147  N         60.7160   17.8180   50.5820 N.am  482  ALA482     -0.1963
    148  CA        61.8300   18.3010   51.3830 C.3   482  ALA482      0.1728
    149  C         61.3980   19.4690   52.2880 C.2   482  ALA482      0.2616
    150  O         61.7830   19.5410   53.4670 O.2   482  ALA482     -0.2715
    151  CB        63.0290   18.6740   50.4990 C.3   482  ALA482      0.0334
    152  N         60.6220   20.4080   51.7440 N.am  483  ASN483     -0.1972
    153  CA        60.1870   21.5910   52.5000 C.3   483  ASN483      0.1688
    154  C         59.0630   21.2500   53.4650 C.2   483  ASN483      0.2292
    155  O         59.0580   21.8410   54.5710 O.2   483  ASN483     -0.2864
    156  CB        59.8810   22.6980   51.5080 C.3   483  ASN483      0.1181
    157  CG        61.1060   22.9340   50.6660 C.2   483  ASN483      0.2629
    158  OD1       62.0820   23.5900   51.1500 O.2   483  ASN483     -0.2716
    159  ND2       61.0990   22.4720   49.4660 N.am  483  ASN483     -0.0877
    160  N         66.0920   13.2050   51.7650 N.3   550  LEU550     -0.1245
    161  CA        67.0200   14.3200   52.1590 C.3   550  LEU550      0.1561
    162  C         66.7780   14.8290   53.5840 C.2   550  LEU550      0.2260
    163  O         67.7020   14.9690   54.3970 O.2   550  LEU550     -0.2867
    164  CB        66.9620   15.4570   51.1280 C.3   550  LEU550      0.0270
    165  CG        67.8820   16.6880   51.2920 C.3   550  LEU550      0.0019
    166  CD1       68.0360   17.3850   49.9730 C.3   550  LEU550      0.0001
    167  CD2       67.3700   17.6660   52.3370 C.3   550  LEU550      0.0001
@<TRIPOS>BOND
     1    97    96    2
     2    96    95    1
     3    95    98    1
     4    95    94    1
     5    98    99    1
     6   101    99   ar
     7   101   103   ar
     8    99   100   ar
     9    92    91    2
    10   103   104   ar
    11   100   102   ar
    12    91    90    1
    13    68    67    2
    14    63    61    1
    15    64    62    1
    16    67    66    1
    17   104   102   ar
    18   104   105    1
    19    60    59    2
    20    61    62    1
    21    61    58    1
    22    90    93    1
    23    90    89    1
    24    80    79    2
    25    76    75    2
    26    88    87    2
    27    59    58    1
    28    59    65   am
    29    66    65    1
    30    66    69    1
    31    58    57    1
    32    89    87   am
    33    87    86    1
    34    79    78    1
    35    79    85   am
    36    78    81    1
    37    78    77    1
    38   106   107    1
    39    75    77   am
    40    75    74    1
    41    57    55   am
    42    73    74    1
    43    69    70    1
    44    81    82    1
    45    70    71    1
    46    70    72    1
    47    86    85    1
    48   116   115   ar
    49   116   114   ar
    50    28    30    1
    51    28    27    1
    52    23    24    1
    53   115   113   ar
    54   114   112   ar
    55   107   108    1
    56   107   110    1
    57    52    50   ar
    58    52    51   ar
    59    55    54    1
    60    55    56    2
    61   113   111   ar
    62    53    54    1
    63   112   111   ar
    64   142   141    1
    65   111   110    1
    66    50    48   ar
    67   108   109    2
    68    82    83   ar
    69    82    84   ar
    70    51    49   ar
    71    27    24    1
    72    27    29    1
    73    24    25    1
    74   140   141   ar
    75   140   138   ar
    76   141   139   ar
    77    48    49   ar
    78    48    47    1
    79    26    25    2
    80    25    31   am
    81    47    44    1
    82   138   136   ar
    83   139   137   ar
    84    18    17    2
    85    46    45    2
    86   117   118    1
    87    31    32    1
    88    45    44    1
    89    20    21    1
    90    20    19    1
    91    44    43    1
    92    21    22    1
    93    17    16    1
    94   136   137   ar
    95   136   135    1
    96    16    19    1
    97    16    15    1
    98   128   127    2
    99    32    33    1
   100   123   122    2
   101   125   126    1
   102   118   119    1
   103   118   121    1
   104   119   120    2
   105    43    37   am
   106   127   131   am
   107   127   126    1
   108    33    34    2
   109    33    35   am
   110   122   121    1
   111   122   124   am
   112   131   132    1
   113   132   135    1
   114   132   133    1
   115   126   129    1
   116    13    11   ar
   117    13    14   ar
   118    11     8   ar
   119    35    36    1
   120    37    38    2
   121    37    36    1
   122     5     6    1
   123     5     2    1
   124    14    12   ar
   125     4     3    2
   126     8     6   ar
   127     8    10   ar
   128   143   133   am
   129   143   144    1
   130     3     2    1
   131   133   134    2
   132   129   130    1
   133    36    39    1
   134     6     7   ar
   135     1     2    1
   136   159   157   am
   137    12    10   ar
   138    10     9   ar
   139   166   165    1
   140    39    40    1
   141   144   145    1
   142     7     9   ar
   143   151   148    1
   144   147   145   am
   145   147   148    1
   146   157   158    2
   147   157   156    1
   148   164   165    1
   149   164   161    1
   150   145   146    2
   151   165   167    1
   152   148   149    1
   153    40    42   am
   154    40    41    2
   155   156   153    1
   156   152   149   am
   157   152   153    1
   158   160   161    1
   159   161   162    1
   160   149   150    2
   161   153   154    1
   162   154   155    2
   163   162   163    2
