@<TRIPOS>MOLECULE
tmp/2pgnB08.pdb
 87 83 0 0 0
SMALL
GASTEIGER

@<TRIPOS>ATOM
      1  N         71.6190   -1.3180   56.1610 N.3   362  TRP362     -0.1241
      2  CA        70.6050   -0.2720   56.2310 C.3   362  TRP362      0.1605
      3  C         69.9240   -0.0940   54.8850 C.2   362  TRP362      0.2264
      4  O         68.6750    0.0170   54.8480 O.2   362  TRP362     -0.2867
      5  CB        71.2460    1.0420   56.7460 C.3   362  TRP362      0.0550
      6  CG        70.2460    2.1890   56.9510 C.ar  362  TRP362      0.0003
      7  CD1       69.4710    2.4440   58.0610 C.ar  362  TRP362      0.0946
      8  CD2       69.9230    3.1860   55.9880 C.ar  362  TRP362      0.0152
      9  NE1       68.7080    3.5610   57.8380 N.ar  362  TRP362     -0.2442
     10  CE2       68.9410    4.0210   56.5640 C.ar  362  TRP362      0.0810
     11  CE3       70.3440    3.4520   54.6760 C.ar  362  TRP362      0.0012
     12  CZ2       68.4100    5.1200   55.8800 C.ar  362  TRP362      0.0191
     13  CZ3       69.7880    4.5430   54.0020 C.ar  362  TRP362      0.0001
     14  CH2       68.8320    5.3290   54.5910 C.ar  362  TRP362      0.0015
     15  N         67.3980   -2.8270   54.3790 N.3   365  GLU365     -0.1231
     16  CA        66.1610   -2.5220   55.1310 C.3   365  GLU365      0.1699
     17  C         65.2670   -1.5120   54.3800 C.2   365  GLU365      0.2592
     18  O         64.0600   -1.6610   54.2770 O.2   365  GLU365     -0.2718
     19  CB        66.4950   -1.9640   56.5100 C.3   365  GLU365      0.0402
     20  CG        67.1410   -2.9660   57.4560 C.3   365  GLU365      0.1161
     21  CD        67.5770   -2.3600   58.7490 C.2   365  GLU365      0.3649
     22  OE1       67.6780   -1.1100   58.8550 O.co2 365  GLU365     -0.2457
     23  OE2       67.8530   -3.1550   59.6670 O.co2 365  GLU365     -0.2457
     24  N         65.8770   -0.4650   53.8120 N.am  366  GLN366     -0.1979
     25  CA        65.1000    0.5750   53.1060 C.3   366  GLN366      0.1601
     26  C         64.4200    0.0520   51.8300 C.2   366  GLN366      0.2287
     27  O         63.3760    0.5590   51.3990 O.2   366  GLN366     -0.2864
     28  CB        65.9470    1.8410   52.8030 C.3   366  GLN366      0.0394
     29  CG        66.7280    2.4490   53.9450 C.3   366  GLN366      0.0908
     30  CD        65.9330    2.5830   55.1840 C.2   366  GLN366      0.2608
     31  OE1       64.8860    3.2710   55.1970 O.2   366  GLN366     -0.2717
     32  NE2       66.3970    1.9680   56.2610 N.am  366  GLN366     -0.0878
     33  N         63.4470   -3.0610   51.7820 N.3   368  SER368     -0.1217
     34  CA        62.6010   -4.0610   52.3450 C.3   368  SER368      0.1889
     35  C         61.3390   -3.3270   52.3590 C.2   368  SER368      0.2288
     36  O         61.1220   -2.2700   52.9830 O.2   368  SER368     -0.2866
     37  CB        62.9840   -4.5340   53.7570 C.3   368  SER368      0.2089
     38  OG        62.4400   -3.7240   54.8030 O.3   368  SER368     -0.2183
     39  N         58.8520    2.6980   48.8230 N.3   375  SER375     -0.1217
     40  CA        60.2000    3.2230   49.1440 C.3   375  SER375      0.1889
     41  C         61.0010    3.5480   47.8660 C.2   375  SER375      0.2288
     42  O         61.0660    2.7600   46.9410 O.2   375  SER375     -0.2866
     43  CB        61.0030    2.2420   49.9820 C.3   375  SER375      0.2089
     44  OG        62.3330    2.6950   50.0870 O.3   375  SER375     -0.2183
     45  N         56.2130    8.5410   50.0350 N.3   545  SER545     -0.1217
     46  CA        55.9070    9.3530   51.2180 C.3   545  SER545      0.1889
     47  C         56.3510   10.7870   51.0580 C.2   545  SER545      0.2288
     48  O         57.1960   11.1110   50.1600 O.2   545  SER545     -0.2866
     49  CB        56.5240    8.7990   52.4680 C.3   545  SER545      0.2089
     50  OG        57.8680    8.9890   52.5160 O.3   545  SER545     -0.2183
     51  N         58.0810   12.3300   53.3060 N.3   547  THR547     -0.1203
     52  CA        59.2130   12.5550   54.2180 C.3   547  THR547      0.1994
     53  C         60.4920   11.7630   53.9650 C.2   547  THR547      0.2617
     54  O         61.5700   12.1920   54.3960 O.2   547  THR547     -0.2717
     55  CB        58.7630   12.3160   55.6720 C.3   547  THR547      0.1784
     56  OG1       58.2630   10.9810   55.8120 O.3   547  THR547     -0.2211
     57  CG2       57.6730   13.3040   56.0690 C.3   547  THR547      0.0376
     58  N         60.4110   10.6520   53.2300 N.am  548  GLN548     -0.1979
     59  CA        61.5820    9.8150   52.9850 C.3   548  GLN548      0.1601
     60  C         62.6290   10.6270   52.2210 C.2   548  GLN548      0.2287
     61  O         62.3350   11.2050   51.1910 O.2   548  GLN548     -0.2864
     62  CB        61.2700    8.5790   52.1880 C.3   548  GLN548      0.0394
     63  CG        62.4700    7.6960   51.8850 C.3   548  GLN548      0.0908
     64  CD        62.1470    6.4490   51.0710 C.2   548  GLN548      0.2608
     65  OE1       61.3790    6.4760   50.1180 O.2   548  GLN548     -0.2717
     66  NE2       62.7750    5.3460   51.4370 N.am  548  GLN548     -0.0878
     67  N         65.1330   13.6500   56.1830 N.3   552  SER552     -0.1202
     68  CA        64.7920   12.7000   57.3080 C.3   552  SER552      0.2020
     69  C         65.8170   11.5750   57.5450 C.2   552  SER552      0.2619
     70  O         65.9790   11.1510   58.6850 O.2   552  SER552     -0.2717
     71  CB        63.3660   12.1500   57.2000 C.3   552  SER552      0.2103
     72  OG        63.2610   11.2620   56.1420 O.3   552  SER552     -0.2182
     73  N         66.3810   10.9850   56.4900 N.am  553  ASP553     -0.1960
     74  CA        67.1560    9.7560   56.6460 C.3   553  ASP553      0.1825
     75  C         68.5470    9.9990   57.2000 C.2   553  ASP553      0.2464
     76  O         69.3120   10.8460   56.7030 O.2   553  ASP553     -0.2730
     77  CB        67.2630    8.9910   55.3510 C.3   553  ASP553      0.1450
     78  CG        66.0170    8.2680   55.0360 C.2   553  ASP553      0.3671
     79  OD1       65.4890    7.4980   55.9050 O.co2 553  ASP553     -0.2456
     80  OD2       65.5940    8.3730   53.9180 O.co2 553  ASP553     -0.2456
     81  N         68.9260    9.2780   58.2780 N.am  554  PRO554     -0.2727
     82  CA        70.2560    9.4780   58.9130 C.3   554  PRO554      0.1402
     83  C         71.3650    8.7680   58.1600 C.2   554  PRO554      0.2269
     84  O         71.4960    7.5430   58.2480 O.2   554  PRO554     -0.2865
     85  CB        70.0360    8.8610   60.3140 C.3   554  PRO554      0.0296
     86  CG        68.9910    7.6910   60.0250 C.3   554  PRO554      0.0237
     87  CD        68.0500    8.3590   59.0420 C.3   554  PRO554      0.0939
@<TRIPOS>BOND
     1    42    41    2
     2    41    40    1
     3    39    40    1
     4    40    43    1
     5    43    44    1
     6    45    46    1
     7    65    64    2
     8    48    47    2
     9    47    46    1
    10    64    66   am
    11    64    63    1
    12    61    60    2
    13    46    49    1
    14    27    26    2
    15    33    34    1
    16    26    25    1
    17    63    62    1
    18    62    59    1
    19    60    59    1
    20    34    35    1
    21    34    37    1
    22    35    36    2
    23    49    50    1
    24    28    25    1
    25    28    29    1
    26    59    58    1
    27    25    24    1
    28    58    53   am
    29    51    52    1
    30    37    38    1
    31    24    17   am
    32    80    78   ar
    33    29    30    1
    34    53    52    1
    35    53    54    2
    36    13    14   ar
    37    13    11   ar
    38    52    55    1
    39    18    17    2
    40    15    16    1
    41    17    16    1
    42    14    12   ar
    43    11     8   ar
    44     4     3    2
    45     3     2    1
    46    78    77    1
    47    78    79   ar
    48    16    19    1
    49    30    31    2
    50    30    32   am
    51    77    74    1
    52    55    56    1
    53    55    57    1
    54    12    10   ar
    55     8    10   ar
    56     8     6   ar
    57    72    71    1
    58     1     2    1
    59    67    68    1
    60     2     5    1
    61    73    74    1
    62    73    69   am
    63    19    20    1
    64    10     9   ar
    65    74    75    1
    66    76    75    2
    67     5     6    1
    68     6     7   ar
    69    75    81   am
    70    71    68    1
    71    68    69    1
    72    20    21    1
    73    69    70    2
    74     9     7   ar
    75    83    84    2
    76    83    82    1
    77    81    82    1
    78    81    87    1
    79    21    22   ar
    80    21    23   ar
    81    82    85    1
    82    87    86    1
    83    86    85    1
