@<TRIPOS>MOLECULE
tmp/2pgnB00.pdb
 80 77 0 0 0
SMALL
GASTEIGER

@<TRIPOS>ATOM
      1  N         66.6050   27.8950   18.8430 N.3    24  PHE24      -0.1227
      2  CA        65.2180   28.3910   18.8880 C.3    24  PHE24       0.1736
      3  C         65.0450   29.4910   17.8460 C.2    24  PHE24       0.2595
      4  O         65.8210   30.4680   17.7890 O.2    24  PHE24      -0.2718
      5  CB        64.8360   28.8890   20.3090 C.3    24  PHE24       0.0547
      6  CG        63.3580   28.7110   20.6410 C.ar   24  PHE24      -0.0202
      7  CD1       62.9810   27.8990   21.7060 C.ar   24  PHE24      -0.0042
      8  CD2       62.3350   29.3830   19.9570 C.ar   24  PHE24      -0.0042
      9  CE1       61.6320   27.6970   22.0210 C.ar   24  PHE24      -0.0003
     10  CE2       60.9900   29.1780   20.2780 C.ar   24  PHE24      -0.0003
     11  CZ        60.6410   28.3630   21.3330 C.ar   24  PHE24      -0.0000
     12  N         64.0460   29.3420   16.9920 N.am   25  ILE25      -0.1966
     13  CA        63.7680   30.2410   15.8820 C.3    25  ILE25       0.1727
     14  C         63.1100   31.5620   16.3160 C.2    25  ILE25       0.2617
     15  O         62.3040   31.6030   17.2740 O.2    25  ILE25      -0.2715
     16  CB        62.8850   29.5430   14.7790 C.3    25  ILE25       0.0290
     17  CG1       63.0750   30.1670   13.3870 C.3    25  ILE25       0.0022
     18  CG2       61.4230   29.4820   15.1770 C.3    25  ILE25       0.0023
     19  CD1       64.4570   30.1930   12.8890 C.3    25  ILE25       0.0001
     20  N         63.4090   32.6050   15.5440 N.am   26  GLY26      -0.1940
     21  CA        62.7400   33.9020   15.5540 C.3    26  GLY26       0.2014
     22  C         63.4150   34.7000   14.4720 C.2    26  GLY26       0.2638
     23  O         64.4940   34.3170   13.9890 O.2    26  GLY26      -0.2714
     24  N         62.9580   35.8730   14.1090 N.am   27  HIS27      -0.1973
     25  CA        63.5900   36.6080   12.9560 C.3    27  HIS27       0.1656
     26  C         65.0940   36.8790   13.1440 C.2    27  HIS27       0.2291
     27  O         65.8210   36.9350   12.1720 O.2    27  HIS27      -0.2864
     28  CB        62.8080   37.8670   12.5960 C.3    27  HIS27       0.0771
     29  CG        62.7330   38.8300   13.7130 C.ar   27  HIS27       0.0820
     30  ND1       61.7500   38.7510   14.6810 N.ar   27  HIS27      -0.2267
     31  CD2       63.4820   39.9080   14.0150 C.ar   27  HIS27       0.1154
     32  CE1       61.9310   39.7270   15.5520 C.ar   27  HIS27       0.1986
     33  NE2       63.0120   40.4130   15.2040 N.ar   27  HIS27      -0.2212
     34  N         63.5210   27.8270   25.8790 N.3    51  GLU51      -0.1245
     35  CA        64.9690   28.0740   25.8940 C.3    51  GLU51       0.1567
     36  C         65.5950   27.5770   27.1940 C.2    51  GLU51       0.2260
     37  O         66.7370   27.1230   27.1390 O.2    51  GLU51      -0.2867
     38  CB        65.2750   29.5430   25.6290 C.3    51  GLU51       0.0388
     39  CG        64.9430   30.0290   24.2250 C.3    51  GLU51       0.1160
     40  CD        63.5230   30.5430   24.0170 C.2    51  GLU51       0.3649
     41  OE1       63.3240   31.1980   22.9360 O.co2  51  GLU51      -0.2457
     42  OE2       62.6100   30.2720   24.8670 O.co2  51  GLU51      -0.2457
     43  N         67.3180   33.1410   19.3340 N.3    75  HIS75      -0.1241
     44  CA        66.6620   34.4380   18.9920 C.3    75  HIS75       0.1621
     45  C         66.5930   35.3060   20.2280 C.2    75  HIS75       0.2264
     46  O         66.0810   34.8720   21.2650 O.2    75  HIS75      -0.2867
     47  CB        65.1980   34.1600   18.4960 C.3    75  HIS75       0.0745
     48  CG        64.2940   35.3650   18.3210 C.ar   75  HIS75       0.0817
     49  ND1       64.3690   36.2470   17.2580 N.ar   75  HIS75      -0.2268
     50  CD2       63.1700   35.6860   19.0010 C.ar   75  HIS75       0.1154
     51  CE1       63.3510   37.0870   17.3280 C.ar   75  HIS75       0.1986
     52  NE2       62.6270   36.7750   18.3800 N.ar   75  HIS75      -0.2212
     53  N         65.1150   37.6750   22.5360 N.3    77  VAL77      -0.1231
     54  CA        64.4650   37.6420   23.8760 C.3    77  VAL77       0.1692
     55  C         64.4550   36.2610   24.5180 C.2    77  VAL77       0.2592
     56  O         64.3170   36.1600   25.7580 O.2    77  VAL77      -0.2718
     57  CB        63.0970   38.3760   23.9180 C.3    77  VAL77       0.0266
     58  CG1       63.2940   39.9140   23.6510 C.3    77  VAL77       0.0020
     59  CG2       62.1160   37.6810   22.9640 C.3    77  VAL77       0.0020
     60  N         64.6060   35.2040   23.7190 N.am   78  GLY78      -0.1957
     61  CA        64.7390   33.8790   24.2980 C.3    78  GLY78       0.1869
     62  C         65.9970   33.6890   25.1720 C.2    78  GLY78       0.2309
     63  O         66.0540   32.8570   26.0800 O.2    78  GLY78      -0.2863
     64  N         65.8330   33.7030   29.1030 N.3    81  LEU81      -0.1245
     65  CA        65.5080   32.5200   29.8850 C.3    81  LEU81       0.1561
     66  C         66.7160   31.7060   30.3100 C.2    81  LEU81       0.2260
     67  O         66.5440   30.6590   30.9600 O.2    81  LEU81      -0.2867
     68  CB        64.4280   31.6530   29.1430 C.3    81  LEU81       0.0270
     69  CG        62.9960   32.1500   29.0740 C.3    81  LEU81       0.0019
     70  CD1       62.8290   33.1880   27.9510 C.3    81  LEU81       0.0001
     71  CD2       62.0100   31.0340   28.8760 C.3    81  LEU81       0.0001
     72  N         62.9060   44.4000   22.0580 N.3   115  GLN115     -0.1245
     73  CA        63.7220   43.2000   21.9200 C.3   115  GLN115      0.1566
     74  C         65.2580   43.5040   21.8550 C.2   115  GLN115      0.2260
     75  O         66.0410   42.7160   21.2720 O.2   115  GLN115     -0.2867
     76  CB        63.3070   42.3690   20.7360 C.3   115  GLN115      0.0367
     77  CG        61.8540   41.9700   20.7630 C.3   115  GLN115      0.0905
     78  CD        61.4710   40.7580   19.8590 C.2   115  GLN115      0.2608
     79  OE1       62.0240   40.6350   18.7370 O.2   115  GLN115     -0.2717
     80  NE2       60.5420   39.8900   20.3150 N.am  115  GLN115     -0.0878
@<TRIPOS>BOND
     1    27    26    2
     2    28    25    1
     3    28    29    1
     4    19    17    1
     5    25    26    1
     6    25    24    1
     7    17    16    1
     8    29    31   ar
     9    29    30   ar
    10    23    22    2
    11    31    33   ar
    12    24    22   am
    13    22    21    1
    14    30    32   ar
    15    16    18    1
    16    16    13    1
    17    33    32   ar
    18    20    21    1
    19    20    14   am
    20    13    14    1
    21    13    12    1
    22    14    15    2
    23    12     3   am
    24    49    51   ar
    25    49    48   ar
    26    51    52   ar
    27     4     3    2
    28     3     2    1
    29    48    47    1
    30    48    50   ar
    31    52    50   ar
    32    47    44    1
    33    79    78    2
    34     1     2    1
    35     2     5    1
    36    44    43    1
    37    44    45    1
    38    78    80   am
    39    78    77    1
    40     8    10   ar
    41     8     6   ar
    42    45    46    2
    43    10    11   ar
    44     5     6    1
    45     6     7   ar
    46    76    77    1
    47    76    73    1
    48    75    74    2
    49    11     9   ar
    50     7     9   ar
    51    74    73    1
    52    73    72    1
    53    53    54    1
    54    41    40   ar
    55    59    57    1
    56    58    57    1
    57    60    61    1
    58    60    55   am
    59    54    57    1
    60    54    55    1
    61    40    39    1
    62    40    42   ar
    63    39    38    1
    64    61    62    1
    65    55    56    2
    66    62    63    2
    67    38    35    1
    68    34    35    1
    69    35    36    1
    70    37    36    2
    71    70    69    1
    72    71    69    1
    73    69    68    1
    74    64    65    1
    75    68    65    1
    76    65    66    1
    77    66    67    2
