@<TRIPOS>MOLECULE
tmp/2pgnA00.pdb
 72 68 0 0 0
SMALL
GASTEIGER

@<TRIPOS>ATOM
      1  N         56.3050   52.3280   41.3530 N.3   150  GLU150     -0.1231
      2  CA        55.0320   53.0210   41.1380 C.3   150  GLU150      0.1699
      3  C         55.2900   54.4670   40.7120 C.2   150  GLU150      0.2593
      4  O         54.3560   55.2670   40.6810 O.2   150  GLU150     -0.2718
      5  CB        54.1860   52.9020   42.3950 C.3   150  GLU150      0.0402
      6  CG        53.7230   51.4380   42.6390 C.3   150  GLU150      0.1161
      7  CD        52.8900   51.2120   43.8660 C.2   150  GLU150      0.3649
      8  OE1       52.8430   52.0950   44.7530 O.co2 150  GLU150     -0.2457
      9  OE2       52.2820   50.1200   43.9680 O.co2 150  GLU150     -0.2457
     10  N         56.5210   54.8140   40.3270 N.am  151  GLY151     -0.1942
     11  CA        56.8220   56.1360   39.8010 C.3   151  GLY151      0.2014
     12  C         56.4440   56.2890   38.3380 C.2   151  GLY151      0.2638
     13  O         55.7010   55.5060   37.7670 O.2   151  GLY151     -0.2714
     14  N         56.9670   57.3460   37.7350 N.am  152  HIS152     -0.1973
     15  CA        56.8500   57.6570   36.2890 C.3   152  HIS152      0.1656
     16  C         58.2760   57.7330   35.7670 C.2   152  HIS152      0.2291
     17  O         59.0050   58.6940   36.0670 O.2   152  HIS152     -0.2864
     18  CB        56.0900   58.9930   36.0350 C.3   152  HIS152      0.0771
     19  CG        54.6270   58.9080   36.3120 C.ar  152  HIS152      0.0820
     20  ND1       53.6790   58.7800   35.3130 N.ar  152  HIS152     -0.2267
     21  CD2       53.9430   58.8760   37.4830 C.ar  152  HIS152      0.1154
     22  CE1       52.4830   58.6910   35.8620 C.ar  152  HIS152      0.1986
     23  NE2       52.6150   58.7480   37.1790 N.ar  152  HIS152     -0.2212
     24  N         53.0810   62.5040   46.1990 N.3   183  ALA183     -0.1231
     25  CA        52.7090   63.6870   45.4200 C.3   183  ALA183      0.1694
     26  C         51.5990   63.3570   44.4110 C.2   183  ALA183      0.2592
     27  O         51.5720   62.2560   43.8950 O.2   183  ALA183     -0.2718
     28  CB        53.9270   64.2870   44.6730 C.3   183  ALA183      0.0304
     29  N         50.6890   64.2950   44.1790 N.am  184  LYS184     -0.1966
     30  CA        49.6650   64.1510   43.1370 C.3   184  LYS184      0.1728
     31  C         50.3640   64.0130   41.7550 C.2   184  LYS184      0.2616
     32  O         51.4700   64.5740   41.5190 O.2   184  LYS184     -0.2715
     33  CB        48.6970   65.3450   43.1650 C.3   184  LYS184      0.0311
     34  CG        47.8180   65.4850   44.4460 C.3   184  LYS184      0.0038
     35  CD        47.0790   66.7810   44.4810 C.3   184  LYS184      0.0206
     36  CE        46.2570   66.9510   45.7450 C.3   184  LYS184      0.1093
     37  NZ        47.1090   67.1640   46.9500 N.3   184  LYS184     -0.1314
     38  N         49.7500   63.2680   40.8370 N.am  185  SER185     -0.1950
     39  CA        50.2870   63.1570   39.4780 C.3   185  SER185      0.1924
     40  C         49.4550   63.9330   38.4700 C.2   185  SER185      0.2314
     41  O         49.6120   63.6970   37.2670 O.2   185  SER185     -0.2863
     42  CB        50.4150   61.7010   39.0290 C.3   185  SER185      0.2116
     43  OG        49.3050   60.9710   39.4290 O.3   185  SER185     -0.2180
     44  N         49.7010   66.7600   37.0470 N.3   187  LEU187     -0.1245
     45  CA        50.5610   67.8320   36.5630 C.3   187  LEU187      0.1561
     46  C         49.8570   68.6820   35.4720 C.2   187  LEU187      0.2260
     47  O         49.4220   68.1470   34.4570 O.2   187  LEU187     -0.2867
     48  CB        51.8750   67.2520   36.0070 C.3   187  LEU187      0.0270
     49  CG        53.0650   66.9110   36.9330 C.3   187  LEU187      0.0019
     50  CD1       52.7140   65.9190   37.9820 C.3   187  LEU187      0.0001
     51  CD2       54.2550   66.4380   36.1130 C.3   187  LEU187      0.0001
     52  N         53.9440   62.5390   31.0970 N.3   302  THR302     -0.1218
     53  CA        54.4770   62.7810   32.4450 C.3   302  THR302      0.1862
     54  C         55.9780   62.4290   32.5520 C.2   302  THR302      0.2287
     55  O         56.5820   62.8460   33.5060 O.2   302  THR302     -0.2866
     56  CB        53.7180   61.9210   33.5000 C.3   302  THR302      0.1770
     57  OG1       53.6230   60.5840   33.0200 O.3   302  THR302     -0.2211
     58  CG2       52.3020   62.3980   33.7600 C.3   302  THR302      0.0375
     59  N         59.5140   63.0790   30.9670 N.3   304  PRO304     -0.2116
     60  CA        60.2710   63.8590   29.9780 C.3   304  PRO304      0.1372
     61  C         61.2140   63.0800   29.0820 C.2   304  PRO304      0.2244
     62  O         61.5240   63.5170   27.9810 O.2   304  PRO304     -0.2868
     63  CB        61.0870   64.8560   30.8090 C.3   304  PRO304      0.0268
     64  CG        60.5170   64.8260   32.0620 C.3   304  PRO304      0.0207
     65  CD        59.7990   63.5440   32.3160 C.3   304  PRO304      0.0892
     66  N         55.2830   68.5340   29.3890 N.3   318  VAL318     -0.1245
     67  CA        55.2540   67.6600   30.5770 C.3   318  VAL318      0.1561
     68  C         53.9340   67.9100   31.3680 C.2   318  VAL318      0.2260
     69  O         53.7860   68.9270   32.0090 O.2   318  VAL318     -0.2867
     70  CB        56.4960   67.8440   31.5190 C.3   318  VAL318      0.0252
     71  CG1       56.4640   66.8250   32.6070 C.3   318  VAL318      0.0019
     72  CG2       57.7750   67.7630   30.7670 C.3   318  VAL318      0.0019
@<TRIPOS>BOND
     1    62    61    2
     2    61    60    1
     3    66    67    1
     4    60    63    1
     5    60    59    1
     6    67    68    1
     7    67    70    1
     8    72    70    1
     9    63    64    1
    10    59    65    1
    11    52    53    1
    12    68    69    2
    13    70    71    1
    14    64    65    1
    15    53    54    1
    16    53    56    1
    17    54    55    2
    18    57    56    1
    19    56    58    1
    20    47    46    2
    21    20    22   ar
    22    20    19   ar
    23    46    45    1
    24    16    17    2
    25    16    15    1
    26    22    23   ar
    27    48    45    1
    28    48    49    1
    29    18    15    1
    30    18    19    1
    31    51    49    1
    32    15    14    1
    33    19    21   ar
    34    45    44    1
    35    49    50    1
    36    23    21   ar
    37    41    40    2
    38    14    12   am
    39    13    12    2
    40    12    11    1
    41    40    39    1
    42    42    43    1
    43    42    39    1
    44    39    38    1
    45    11    10    1
    46    10     3   am
    47     4     3    2
    48     3     2    1
    49    38    31   am
    50     2     1    1
    51     2     5    1
    52    32    31    2
    53    31    30    1
    54     5     6    1
    55     6     7    1
    56    30    33    1
    57    30    29    1
    58    33    34    1
    59     7     9   ar
    60     7     8   ar
    61    27    26    2
    62    29    26   am
    63    26    25    1
    64    34    35    1
    65    35    36    1
    66    28    25    1
    67    25    24    1
    68    36    37    1
