@<TRIPOS>MOLECULE
tmp/2pgnB01.pdb
 78 73 0 0 0
SMALL
GASTEIGER

@<TRIPOS>ATOM
      1  N         75.9300   15.1040   52.7720 N.3   258  PHE258     -0.1241
      2  CA        74.6260   15.0110   53.4200 C.3   258  PHE258      0.1605
      3  C         73.5780   14.1930   52.7380 C.2   258  PHE258      0.2264
      4  O         72.5470   13.8190   53.3460 O.2   258  PHE258     -0.2867
      5  CB        74.1000   16.4030   53.8600 C.3   258  PHE258      0.0534
      6  CG        73.3860   17.2440   52.8080 C.ar  258  PHE258     -0.0203
      7  CD1       72.0070   17.3930   52.8540 C.ar  258  PHE258     -0.0042
      8  CD2       74.0780   17.9390   51.8130 C.ar  258  PHE258     -0.0042
      9  CE1       71.3280   18.2140   51.8930 C.ar  258  PHE258     -0.0003
     10  CE2       73.4000   18.7690   50.8900 C.ar  258  PHE258     -0.0003
     11  CZ        72.0630   18.9030   50.9320 C.ar  258  PHE258     -0.0000
     12  N         77.7960   22.2770   49.4560 N.3   284  TRP284     -0.1241
     13  CA        76.8710   21.1280   49.5310 C.3   284  TRP284      0.1605
     14  C         77.4930   19.7940   49.1640 C.2   284  TRP284      0.2264
     15  O         76.7890   18.7870   49.0250 O.2   284  TRP284     -0.2867
     16  CB        75.5930   21.4470   48.7210 C.3   284  TRP284      0.0550
     17  CG        74.6500   22.4040   49.3840 C.ar  284  TRP284      0.0003
     18  CD1       74.9200   23.2050   50.4250 C.ar  284  TRP284      0.0946
     19  CD2       73.2860   22.6090   49.0330 C.ar  284  TRP284      0.0152
     20  NE1       73.8260   23.9300   50.7430 N.ar  284  TRP284     -0.2442
     21  CE2       72.7890   23.5930   49.9140 C.ar  284  TRP284      0.0810
     22  CE3       72.4440   22.1070   48.0330 C.ar  284  TRP284      0.0012
     23  CZ2       71.4510   24.0520   49.8480 C.ar  284  TRP284      0.0191
     24  CZ3       71.1380   22.5380   47.9800 C.ar  284  TRP284      0.0001
     25  CH2       70.6470   23.5120   48.8620 C.ar  284  TRP284      0.0015
     26  N         66.0040   17.6810   42.3500 N.3   397  ILE397     -0.1231
     27  CA        66.3490   18.2240   43.6500 C.3   397  ILE397      0.1692
     28  C         65.1740   18.1170   44.6350 C.2   397  ILE397      0.2592
     29  O         64.1010   18.6750   44.3610 O.2   397  ILE397     -0.2718
     30  CB        66.7360   19.7090   43.4840 C.3   397  ILE397      0.0266
     31  CG1       67.7720   19.9260   42.3490 C.3   397  ILE397      0.0019
     32  CG2       67.2860   20.3320   44.8000 C.3   397  ILE397      0.0020
     33  CD1       69.0010   19.0740   42.4380 C.3   397  ILE397      0.0001
     34  N         65.3870   17.4980   45.8020 N.am  398  GLY398     -0.1957
     35  CA        64.3010   17.3380   46.7630 C.3   398  GLY398      0.1869
     36  C         64.6060   16.1780   47.7230 C.2   398  GLY398      0.2309
     37  O         65.7550   15.6630   47.7750 O.2   398  GLY398     -0.2863
     38  N         71.6490   23.1550   42.8490 N.3   423  GLY423     -0.1225
     39  CA        70.3730   22.5910   43.2860 C.3   423  GLY423      0.1811
     40  C         69.1630   23.3040   42.7040 C.2   423  GLY423      0.2280
     41  O         68.2170   23.6010   43.4310 O.2   423  GLY423     -0.2866
     42  N         60.7160   17.8180   50.5820 N.3   482  ALA482     -0.1231
     43  CA        61.8300   18.3010   51.3830 C.3   482  ALA482      0.1694
     44  C         61.3980   19.4690   52.2880 C.2   482  ALA482      0.2592
     45  O         61.7830   19.5410   53.4670 O.2   482  ALA482     -0.2718
     46  CB        63.0290   18.6740   50.4990 C.3   482  ALA482      0.0304
     47  N         60.6220   20.4080   51.7440 N.am  483  ASN483     -0.1974
     48  CA        60.1870   21.5910   52.5000 C.3   483  ASN483      0.1688
     49  C         59.0630   21.2500   53.4650 C.2   483  ASN483      0.2292
     50  O         59.0580   21.8410   54.5710 O.2   483  ASN483     -0.2864
     51  CB        59.8810   22.6980   51.5080 C.3   483  ASN483      0.1181
     52  CG        61.1060   22.9340   50.6660 C.2   483  ASN483      0.2629
     53  OD1       62.0820   23.5900   51.1500 O.2   483  ASN483     -0.2716
     54  ND2       61.0990   22.4720   49.4660 N.am  483  ASN483     -0.0877
     55  N         61.3400   19.6410   56.3210 N.3   486  LEU486     -0.1245
     56  CA        62.1770   20.6170   56.9800 C.3   486  LEU486      0.1561
     57  C         61.3460   21.5910   57.8030 C.2   486  LEU486      0.2260
     58  O         61.6980   21.8910   58.9480 O.2   486  LEU486     -0.2867
     59  CB        63.0510   21.3430   55.9600 C.3   486  LEU486      0.0270
     60  CG        64.1840   20.5180   55.3060 C.3   486  LEU486      0.0019
     61  CD1       64.7820   21.3290   54.1510 C.3   486  LEU486      0.0001
     62  CD2       65.2440   20.0250   56.2870 C.3   486  LEU486      0.0001
     63  N         66.0920   13.2050   51.7650 N.3   550  LEU550     -0.1245
     64  CA        67.0200   14.3200   52.1590 C.3   550  LEU550      0.1561
     65  C         66.7780   14.8290   53.5840 C.2   550  LEU550      0.2260
     66  O         67.7020   14.9690   54.3970 O.2   550  LEU550     -0.2867
     67  CB        66.9620   15.4570   51.1280 C.3   550  LEU550      0.0270
     68  CG        67.8820   16.6880   51.2920 C.3   550  LEU550      0.0019
     69  CD1       68.0360   17.3850   49.9730 C.3   550  LEU550      0.0001
     70  CD2       67.3700   17.6660   52.3370 C.3   550  LEU550      0.0001
     71  N         70.7090   24.5680   57.0750 N.3   562  LEU562     -0.1245
     72  CA        69.5330   25.0760   56.3110 C.3   562  LEU562      0.1561
     73  C         68.5010   25.7320   57.2460 C.2   562  LEU562      0.2260
     74  O         67.7180   26.6470   56.8210 O.2   562  LEU562     -0.2867
     75  CB        68.7830   23.8870   55.5900 C.3   562  LEU562      0.0270
     76  CG        69.5500   22.9710   54.6140 C.3   562  LEU562      0.0019
     77  CD1       68.7270   21.8130   54.0390 C.3   562  LEU562      0.0001
     78  CD2       70.2210   23.8020   53.4990 C.3   562  LEU562      0.0001
@<TRIPOS>BOND
     1    31    33    1
     2    31    30    1
     3    26    27    1
     4    40    39    1
     5    40    41    2
     6    38    39    1
     7    30    27    1
     8    30    32    1
     9    27    28    1
    10    29    28    2
    11    28    34   am
    12    34    35    1
    13    35    36    1
    14    36    37    2
    15    24    22   ar
    16    24    25   ar
    17    22    19   ar
    18    16    17    1
    19    16    13    1
    20    25    23   ar
    21    15    14    2
    22    19    17   ar
    23    19    21   ar
    24    14    13    1
    25    17    18   ar
    26    12    13    1
    27    54    52   am
    28    23    21   ar
    29    21    20   ar
    30    69    68    1
    31    18    20   ar
    32    46    43    1
    33    42    43    1
    34    52    53    2
    35    52    51    1
    36    10    11   ar
    37    10     8   ar
    38    11     9   ar
    39    67    68    1
    40    67    64    1
    41    68    70    1
    42    43    44    1
    43    51    48    1
    44    47    44   am
    45    47    48    1
    46    63    64    1
    47     8     6   ar
    48     9     7   ar
    49    64    65    1
    50    44    45    2
    51    48    49    1
    52     3     4    2
    53     3     2    1
    54     1     2    1
    55     6     7   ar
    56     6     5    1
    57     2     5    1
    58    49    50    2
    59    78    76    1
    60    65    66    2
    61    77    76    1
    62    61    60    1
    63    76    75    1
    64    60    59    1
    65    60    62    1
    66    75    72    1
    67    59    56    1
    68    72    71    1
    69    72    73    1
    70    55    56    1
    71    74    73    2
    72    56    57    1
    73    57    58    2
