@<TRIPOS>MOLECULE
tmp/2pgnB06.pdb
 85 84 0 0 0
SMALL
GASTEIGER

@<TRIPOS>ATOM
      1  N         71.0820   39.1090   18.8760 N.3   102  ASN102     -0.1240
      2  CA        70.3280   40.2680   19.3500 C.3   102  ASN102      0.1653
      3  C         69.5910   40.9170   18.1750 C.2   102  ASN102      0.2266
      4  O         69.7980   40.5870   17.0040 O.2   102  ASN102     -0.2867
      5  CB        71.2360   41.2520   20.1290 C.3   102  ASN102      0.1155
      6  CG        70.5340   41.9030   21.3090 C.2   102  ASN102      0.2627
      7  OD1       69.3150   42.2020   21.2830 O.2   102  ASN102     -0.2716
      8  ND2       71.3240   42.1690   22.3730 N.am  102  ASN102     -0.0877
      9  N         70.0240   49.7710   18.5860 N.3   108  ALA108     -0.1231
     10  CA        70.5710   49.6360   19.9520 C.3   108  ALA108      0.1694
     11  C         70.6850   50.9780   20.6440 C.2   108  ALA108      0.2593
     12  O         71.0460   52.0240   20.0360 O.2   108  ALA108     -0.2718
     13  CB        71.9070   48.9190   19.9840 C.3   108  ALA108      0.0304
     14  N         70.4240   50.9900   21.9360 N.am  109  GLY109     -0.1942
     15  CA        70.5610   52.1930   22.7420 C.3   109  GLY109      0.2014
     16  C         69.3790   53.1380   22.7330 C.2   109  GLY109      0.2638
     17  O         69.3950   54.1340   23.4450 O.2   109  GLY109     -0.2714
     18  N         68.3430   52.8750   21.9420 N.am  110  ARG110     -0.1977
     19  CA        67.1440   53.7040   21.9090 C.3   110  ARG110      0.1597
     20  C         66.2160   53.3040   23.0540 C.2   110  ARG110      0.2287
     21  O         65.9010   52.1110   23.2440 O.2   110  ARG110     -0.2864
     22  CB        66.4480   53.4920   20.5530 C.3   110  ARG110      0.0334
     23  CG        67.2810   54.0650   19.4210 C.3   110  ARG110      0.0492
     24  CD        66.6630   54.0250   18.0090 C.3   110  ARG110      0.2205
     25  NE        67.6200   54.6030   17.0550 N.pl3 110  ARG110     -0.0865
     26  CZ        67.5410   54.4150   15.7500 C.cat 110  ARG110      0.5346
     27  NH1       68.4490   54.9170   14.9500 N.pl3 110  ARG110      0.1354
     28  NH2       66.4940   53.7630   15.2350 N.pl3 110  ARG110      0.1354
     29  N         65.6720   44.6120   22.4930 N.3   116  GLN116     -0.1231
     30  CA        67.1060   44.8870   22.6660 C.3   116  GLN116      0.1698
     31  C         67.5250   44.2510   23.9700 C.2   116  GLN116      0.2592
     32  O         67.2860   44.7490   25.0760 O.2   116  GLN116     -0.2718
     33  CB        67.4060   46.3900   22.6230 C.3   116  GLN116      0.0381
     34  CG        67.2560   47.0090   21.2120 C.3   116  GLN116      0.0905
     35  CD        68.3530   46.6410   20.2250 C.2   116  GLN116      0.2608
     36  OE1       69.5030   46.2780   20.5960 O.2   116  GLN116     -0.2717
     37  NE2       68.0080   46.7690   18.9140 N.am  116  GLN116     -0.0878
     38  N         68.1610   43.0990   23.8590 N.am  117  VAL117     -0.1966
     39  CA        68.4100   42.2130   25.0180 C.3   117  VAL117      0.1712
     40  C         69.5860   42.7170   25.8500 C.2   117  VAL117      0.2458
     41  O         70.6890   43.0110   25.2920 O.2   117  VAL117     -0.2730
     42  CB        68.7080   40.8030   24.5520 C.3   117  VAL117      0.0289
     43  CG1       69.1560   39.8800   25.6870 C.3   117  VAL117      0.0023
     44  CG2       67.4580   40.2470   23.8840 C.3   117  VAL117      0.0023
     45  N         69.4010   42.8700   27.2030 N.am  118  PRO118     -0.2716
     46  CA        70.4930   43.3140   28.0830 C.3   118  PRO118      0.1536
     47  C         71.4920   42.1750   28.3290 C.2   118  PRO118      0.2599
     48  O         71.4310   41.4870   29.3650 O.2   118  PRO118     -0.2715
     49  CB        69.7490   43.7620   29.3610 C.3   118  PRO118      0.0310
     50  CG        68.5130   42.8990   29.3780 C.3   118  PRO118      0.0237
     51  CD        68.1500   42.7710   27.9310 C.3   118  PRO118      0.0939
     52  N         72.4390   42.0350   27.4030 N.am  119  TRP119     -0.1960
     53  CA        73.5240   41.0270   27.4680 C.3   119  TRP119      0.1771
     54  C         74.4140   41.2740   28.7240 C.2   119  TRP119      0.2619
     55  O         75.0050   40.3550   29.1970 O.2   119  TRP119     -0.2715
     56  CB        74.3230   41.1040   26.1410 C.3   119  TRP119      0.0590
     57  CG        74.9530   42.4380   25.8390 C.ar  119  TRP119      0.0006
     58  CD1       74.4090   43.4110   25.0700 C.ar  119  TRP119      0.0946
     59  CD2       76.1760   42.9740   26.3470 C.ar  119  TRP119      0.0152
     60  NE1       75.2020   44.5340   25.0820 N.ar  119  TRP119     -0.2442
     61  CE2       76.3130   44.2740   25.8320 C.ar  119  TRP119      0.0810
     62  CE3       77.1840   42.4670   27.1930 C.ar  119  TRP119      0.0012
     63  CZ2       77.4010   45.0610   26.1410 C.ar  119  TRP119      0.0191
     64  CZ3       78.2680   43.2220   27.4670 C.ar  119  TRP119      0.0001
     65  CH2       78.3560   44.5430   26.9670 C.ar  119  TRP119      0.0015
     66  N         74.4590   42.4930   29.2710 N.am  120  GLN120     -0.1977
     67  CA        75.1850   42.7540   30.4830 C.3   120  GLN120      0.1601
     68  C         74.6210   41.9770   31.6900 C.2   120  GLN120      0.2287
     69  O         75.3380   41.8220   32.7000 O.2   120  GLN120     -0.2864
     70  CB        75.2440   44.2720   30.7700 C.3   120  GLN120      0.0394
     71  CG        76.0820   45.0080   29.6930 C.3   120  GLN120      0.0908
     72  CD        76.5060   46.3840   30.0330 C.2   120  GLN120      0.2608
     73  OE1       76.2000   47.3570   29.3120 O.2   120  GLN120     -0.2717
     74  NE2       77.3470   46.4770   31.0700 N.am  120  GLN120     -0.0878
     75  N         80.0540   40.9500   23.7100 N.3   131  ARG131     -0.1245
     76  CA        79.1480   41.6020   22.7470 C.3   131  ARG131      0.1563
     77  C         79.9960   41.9180   21.4990 C.2   131  ARG131      0.2260
     78  O         80.9590   42.6910   21.5790 O.2   131  ARG131     -0.2867
     79  CB        78.5000   42.8950   23.3130 C.3   131  ARG131      0.0307
     80  CG        77.8740   43.7860   22.3090 C.3   131  ARG131      0.0489
     81  CD        76.6100   43.2960   21.6100 C.3   131  ARG131      0.2205
     82  NE        76.0790   44.3380   20.7350 N.pl3 131  ARG131     -0.0865
     83  CZ        74.8110   44.4690   20.3470 C.cat 131  ARG131      0.5346
     84  NH1       74.4770   45.4630   19.5900 N.pl3 131  ARG131      0.1354
     85  NH2       73.8890   43.5920   20.6600 N.pl3 131  ARG131      0.1354
@<TRIPOS>BOND
     1    27    26    1
     2    28    26    1
     3    26    25    2
     4     4     3    2
     5    25    24    1
     6    24    23    1
     7     3     2    1
     8     9    10    1
     9     1     2    1
    10    37    35   am
    11     2     5    1
    12    23    22    1
    13    84    83    1
    14    10    13    1
    15    10    11    1
    16    12    11    2
    17     5     6    1
    18    35    36    2
    19    35    34    1
    20    83    85    1
    21    83    82    2
    22    22    19    1
    23    11    14   am
    24    82    81    1
    25    34    33    1
    26     7     6    2
    27     6     8   am
    28    77    78    2
    29    77    76    1
    30    81    80    1
    31    19    18    1
    32    19    20    1
    33    14    15    1
    34    18    16   am
    35    80    79    1
    36    29    30    1
    37    33    30    1
    38    30    31    1
    39    16    15    1
    40    16    17    2
    41    76    79    1
    42    76    75    1
    43    20    21    2
    44    38    31   am
    45    38    39    1
    46    44    42    1
    47    31    32    2
    48    42    39    1
    49    42    43    1
    50    39    40    1
    51    58    60   ar
    52    58    57   ar
    53    60    61   ar
    54    41    40    2
    55    61    63   ar
    56    61    59   ar
    57    57    56    1
    58    57    59   ar
    59    40    45   am
    60    63    65   ar
    61    56    53    1
    62    59    62   ar
    63    65    64   ar
    64    62    64   ar
    65    45    51    1
    66    45    46    1
    67    52    53    1
    68    52    47   am
    69    53    54    1
    70    51    50    1
    71    46    47    1
    72    46    49    1
    73    47    48    2
    74    54    55    2
    75    54    66   am
    76    66    67    1
    77    73    72    2
    78    49    50    1
    79    71    72    1
    80    71    70    1
    81    72    74   am
    82    67    70    1
    83    67    68    1
    84    68    69    2
