@<TRIPOS>MOLECULE
tmp/2pgoA03.pdb
 95 90 0 0 0
SMALL
GASTEIGER

@<TRIPOS>ATOM
      1  N         51.6570   47.6890   13.4290 N.3   258  PHE258     -0.1227
      2  CA        51.7950   46.5660   12.5100 C.3   258  PHE258      0.1736
      3  C         50.8810   45.3890   12.7820 C.2   258  PHE258      0.2595
      4  O         50.7150   44.5350   11.8840 O.2   258  PHE258     -0.2718
      5  CB        53.2560   46.1230   12.3200 C.3   258  PHE258      0.0547
      6  CG        53.8230   45.2200   13.3960 C.ar  258  PHE258     -0.0202
      7  CD1       54.0560   43.9110   13.1580 C.ar  258  PHE258     -0.0042
      8  CD2       54.2660   45.7040   14.5860 C.ar  258  PHE258     -0.0042
      9  CE1       54.6490   43.0910   14.1310 C.ar  258  PHE258     -0.0003
     10  CE2       54.8670   44.8780   15.5490 C.ar  258  PHE258     -0.0003
     11  CZ        55.0640   43.6030   15.3080 C.ar  258  PHE258     -0.0000
     12  N         50.3010   45.2960   13.9870 N.am  259  CYS259     -0.1970
     13  CA        49.2550   44.3270   14.2590 C.3   259  CYS259      0.1712
     14  C         47.9120   45.0160   14.5660 C.2   259  CYS259      0.2296
     15  O         46.9940   44.3870   15.0880 O.2   259  CYS259     -0.2864
     16  CB        49.6660   43.4110   15.4550 C.3   259  CYS259      0.0983
     17  SG        50.8170   42.1090   15.0090 S.3   259  CYS259     -0.0798
     18  N         57.8640   48.7400   18.4400 N.3   284  TRP284     -0.1241
     19  CA        56.8320   47.8430   17.9610 C.3   284  TRP284      0.1605
     20  C         55.4210   48.4160   18.1500 C.2   284  TRP284      0.2264
     21  O         54.4150   47.7200   17.9090 O.2   284  TRP284     -0.2867
     22  CB        56.9350   46.4440   18.5840 C.3   284  TRP284      0.0550
     23  CG        58.0420   45.6180   17.9640 C.ar  284  TRP284      0.0003
     24  CD1       59.1160   46.0770   17.2330 C.ar  284  TRP284      0.0946
     25  CD2       58.1860   44.2130   18.0600 C.ar  284  TRP284      0.0152
     26  NE1       59.9020   45.0140   16.8580 N.ar  284  TRP284     -0.2442
     27  CE2       59.3500   43.8570   17.3520 C.ar  284  TRP284      0.0810
     28  CE3       57.4410   43.1920   18.6780 C.ar  284  TRP284      0.0012
     29  CZ2       59.7660   42.5400   17.2310 C.ar  284  TRP284      0.0191
     30  CZ3       57.8660   41.9040   18.5610 C.ar  284  TRP284      0.0001
     31  CH2       59.0040   41.5820   17.8400 C.ar  284  TRP284      0.0015
     32  N         52.1670   35.6540   21.4410 N.3   397  ILE397     -0.1231
     33  CA        52.9970   36.2580   20.3970 C.3   397  ILE397      0.1692
     34  C         53.1560   35.3350   19.2170 C.2   397  ILE397      0.2592
     35  O         53.6860   34.2140   19.3660 O.2   397  ILE397     -0.2718
     36  CB        54.4100   36.5810   20.9800 C.3   397  ILE397      0.0266
     37  CG1       54.3220   37.3320   22.3080 C.3   397  ILE397      0.0019
     38  CG2       55.2420   37.3870   19.9500 C.3   397  ILE397      0.0020
     39  CD1       53.5140   38.5990   22.3230 C.3   397  ILE397      0.0001
     40  N         52.7100   35.7520   18.0440 N.am  398  GLY398     -0.1957
     41  CA        52.7860   34.8980   16.8690 C.3   398  GLY398      0.1869
     42  C         51.9260   35.4340   15.7380 C.2   398  GLY398      0.2309
     43  O         51.3950   36.5570   15.8220 O.2   398  GLY398     -0.2863
     44  N         48.6610   36.9330   16.9820 N.3   401  THR401     -0.1218
     45  CA        48.5240   38.2330   17.6440 C.3   401  THR401      0.1862
     46  C         47.6570   39.1800   16.7980 C.2   401  THR401      0.2287
     47  O         46.8720   39.9860   17.3350 O.2   401  THR401     -0.2866
     48  CB        49.8960   38.8470   17.9270 C.3   401  THR401      0.1770
     49  OG1       50.7550   37.8960   18.5720 O.3   401  THR401     -0.2211
     50  CG2       49.8030   40.1140   18.7500 C.3   401  THR401      0.0375
     51  N         54.2340   32.0830   12.3270 N.3   482  ALA482     -0.1231
     52  CA        54.8370   33.2950   11.7860 C.3   482  ALA482      0.1694
     53  C         56.1820   32.9810   11.1360 C.2   482  ALA482      0.2592
     54  O         56.5110   33.5080   10.0630 O.2   482  ALA482     -0.2718
     55  CB        54.9850   34.3310   12.8870 C.3   482  ALA482      0.0304
     56  N         56.9880   32.2010   11.8380 N.am  483  ASN483     -0.1974
     57  CA        58.3320   31.8740   11.3780 C.3   483  ASN483      0.1688
     58  C         58.3190   30.9380   10.1760 C.2   483  ASN483      0.2292
     59  O         59.0890   31.1020    9.2270 O.2   483  ASN483     -0.2864
     60  CB        59.1670   31.3330   12.5530 C.3   483  ASN483      0.1181
     61  CG        59.1210   32.2880   13.7250 C.2   483  ASN483      0.2629
     62  OD1       59.8680   33.3430   13.6980 O.2   483  ASN483     -0.2716
     63  ND2       58.2510   32.0520   14.6240 N.am  483  ASN483     -0.0877
     64  N         57.2830   33.2570    7.2210 N.3   486  LEU486     -0.1245
     65  CA        58.2290   34.2900    6.8460 C.3   486  LEU486      0.1561
     66  C         59.5440   33.7230    6.3670 C.2   486  LEU486      0.2260
     67  O         60.1600   34.2700    5.4360 O.2   486  LEU486     -0.2867
     68  CB        58.3910   35.2930    7.9850 C.3   486  LEU486      0.0270
     69  CG        57.1140   36.0840    8.2130 C.3   486  LEU486      0.0019
     70  CD1       57.2830   36.9540    9.4040 C.3   486  LEU486      0.0001
     71  CD2       56.6440   36.8870    6.9500 C.3   486  LEU486      0.0001
     72  N         49.6820   37.6090   11.2900 N.3   550  LEU550     -0.1245
     73  CA        50.7870   38.5730   11.0790 C.3   550  LEU550      0.1561
     74  C         51.4980   38.3470    9.7380 C.2   550  LEU550      0.2260
     75  O         51.7290   39.3200    8.9880 O.2   550  LEU550     -0.2867
     76  CB        51.7760   38.5220   12.2700 C.3   550  LEU550      0.0270
     77  CG        53.0250   39.4600   12.2460 C.3   550  LEU550      0.0019
     78  CD1       54.1440   38.9290   11.4030 C.3   550  LEU550      0.0001
     79  CD2       52.6970   40.8660   11.7740 C.3   550  LEU550      0.0001
     80  N         62.0410   43.5520   10.1890 N.3   562  LEU562     -0.1231
     81  CA        62.5450   42.3280   10.8590 C.3   562  LEU562      0.1693
     82  C         63.1570   41.3410    9.8530 C.2   562  LEU562      0.2591
     83  O         63.9920   40.5130   10.2280 O.2   562  LEU562     -0.2718
     84  CB        61.4600   41.6990   11.6530 C.3   562  LEU562      0.0284
     85  CG        60.7880   42.6190   12.7080 C.3   562  LEU562      0.0019
     86  CD1       59.7440   41.8320   13.4380 C.3   562  LEU562      0.0001
     87  CD2       61.8110   43.3110   13.6080 C.3   562  LEU562      0.0001
     88  N         62.7490   41.4080    8.5680 N.am  563  LEU563     -0.1980
     89  CA        63.2640   40.5490    7.5020 C.3   563  LEU563      0.1596
     90  C         64.3110   41.3520    6.7710 C.2   563  LEU563      0.2287
     91  O         64.2540   41.6890    5.5720 O.2   563  LEU563     -0.2864
     92  CB        62.1740   40.0630    6.5770 C.3   563  LEU563      0.0297
     93  CG        60.9490   39.4390    7.2880 C.3   563  LEU563      0.0022
     94  CD1       60.0480   38.8310    6.2450 C.3   563  LEU563      0.0001
     95  CD2       61.2880   38.4460    8.3540 C.3   563  LEU563      0.0001
@<TRIPOS>BOND
     1    67    66    2
     2    91    90    2
     3    94    93    1
     4    66    65    1
     5    92    93    1
     6    92    89    1
     7    90    89    1
     8    65    64    1
     9    65    68    1
    10    71    69    1
    11    93    95    1
    12    89    88    1
    13    68    69    1
    14    69    70    1
    15    88    82   am
    16    75    74    2
    17    59    58    2
    18    74    73    1
    19    82    83    2
    20    82    81    1
    21    54    53    2
    22    58    57    1
    23    80    81    1
    24    81    84    1
    25    73    72    1
    26    73    76    1
    27    53    52    1
    28    53    56   am
    29    57    56    1
    30    57    60    1
    31    78    77    1
    32    84    85    1
    33    79    77    1
    34    52    51    1
    35    52    55    1
    36     4     3    2
    37    77    76    1
    38     5     2    1
    39     5     6    1
    40     2     3    1
    41     2     1    1
    42    60    61    1
    43    85    86    1
    44    85    87    1
    45     3    12   am
    46     7     6   ar
    47     7     9   ar
    48     6     8   ar
    49    62    61    2
    50    61    63   am
    51    12    13    1
    52     9    11   ar
    53    13    14    1
    54    13    16    1
    55    14    15    2
    56     8    10   ar
    57    17    16    1
    58    11    10   ar
    59    42    43    2
    60    42    41    1
    61    46    47    2
    62    46    45    1
    63    26    24   ar
    64    26    27   ar
    65    41    40    1
    66    44    45    1
    67    29    27   ar
    68    29    31   ar
    69    24    23   ar
    70    27    25   ar
    71    45    48    1
    72    31    30   ar
    73    21    20    2
    74    48    49    1
    75    48    50    1
    76    19    20    1
    77    19    18    1
    78    19    22    1
    79    23    25   ar
    80    23    22    1
    81    40    34   am
    82    25    28   ar
    83    30    28   ar
    84    34    35    2
    85    34    33    1
    86    38    36    1
    87    33    36    1
    88    33    32    1
    89    36    37    1
    90    37    39    1
