@<TRIPOS>MOLECULE
tmp/2pgrA00.pdb
 174 163 0 0 0
SMALL
GASTEIGER

@<TRIPOS>ATOM
      1  N         27.4730   18.6220   32.5920 N.3    39  HIS39      -0.1241
      2  CA        28.8930   18.5880   32.9230 C.3    39  HIS39       0.1621
      3  C         29.4070   17.1530   32.9860 C.2    39  HIS39       0.2264
      4  O         29.1480   16.4410   33.9610 O.2    39  HIS39      -0.2867
      5  CB        29.1250   19.2770   34.2680 C.3    39  HIS39       0.0745
      6  CG        28.7830   20.7310   34.2590 C.ar   39  HIS39       0.0817
      7  ND1       29.7390   21.7200   34.3390 N.ar   39  HIS39      -0.2268
      8  CD2       27.5920   21.3650   34.1610 C.ar   39  HIS39       0.1154
      9  CE1       29.1490   22.9010   34.3000 C.ar   39  HIS39       0.1986
     10  NE2       27.8470   22.7140   34.1880 N.ar   39  HIS39      -0.2212
     11  N         32.3530   15.9530   33.5230 N.3    41  ASP41      -0.1225
     12  CA        33.2030   15.7180   34.6950 C.3    41  ASP41       0.1805
     13  C         32.4360   15.5480   36.0210 C.2    41  ASP41       0.2597
     14  O         33.0200   15.1320   37.0170 O.2    41  ASP41      -0.2718
     15  CB        34.3240   16.7750   34.8240 C.3    41  ASP41       0.1424
     16  CG        33.8570   18.2060   34.5510 C.2    41  ASP41       0.3668
     17  OD1       32.6320   18.4590   34.4700 O.co2  41  ASP41      -0.2456
     18  OD2       34.7420   19.0840   34.4210 O.co2  41  ASP41      -0.2456
     19  N         31.1390   15.8620   36.0270 N.am   42  LEU42      -0.1979
     20  CA        30.2700   15.5970   37.1790 C.3    42  LEU42       0.1596
     21  C         29.0260   14.7980   36.7740 C.2    42  LEU42       0.2287
     22  O         27.9550   14.9500   37.3700 O.2    42  LEU42      -0.2864
     23  CB        29.8520   16.9120   37.8490 C.3    42  LEU42       0.0297
     24  CG        30.9450   17.7480   38.5090 C.3    42  LEU42       0.0022
     25  CD1       30.3270   18.9830   39.1500 C.3    42  LEU42       0.0001
     26  CD2       31.7220   16.9290   39.5380 C.3    42  LEU42       0.0001
     27  N         24.8730   27.7860   45.4180 N.3    80  LEU80      -0.1245
     28  CA        25.8630   27.4620   44.3980 C.3    80  LEU80       0.1561
     29  C         27.2640   27.3860   45.0100 C.2    80  LEU80       0.2260
     30  O         28.0910   26.5930   44.5660 O.2    80  LEU80      -0.2867
     31  CB        25.8290   28.5180   43.2860 C.3    80  LEU80       0.0270
     32  CG        26.8330   28.3900   42.1370 C.3    80  LEU80       0.0019
     33  CD1       26.7000   27.0270   41.4550 C.3    80  LEU80       0.0001
     34  CD2       26.6500   29.5410   41.1410 C.3    80  LEU80       0.0001
     35  N         27.5240   24.0130   46.5930 N.3    83  PHE83      -0.1227
     36  CA        27.6330   23.0590   45.4930 C.3    83  PHE83       0.1736
     37  C         29.0760   22.9430   44.9770 C.2    83  PHE83       0.2595
     38  O         29.5560   21.8410   44.7070 O.2    83  PHE83      -0.2718
     39  CB        26.6820   23.4650   44.3560 C.3    83  PHE83       0.0547
     40  CG        26.8750   22.6880   43.0850 C.ar   83  PHE83      -0.0202
     41  CD1       26.1900   21.5020   42.8690 C.ar   83  PHE83      -0.0042
     42  CD2       27.7350   23.1520   42.0950 C.ar   83  PHE83      -0.0042
     43  CE1       26.3670   20.7830   41.6890 C.ar   83  PHE83      -0.0003
     44  CE2       27.9180   22.4380   40.9150 C.ar   83  PHE83      -0.0003
     45  CZ        27.2310   21.2550   40.7120 C.ar   83  PHE83      -0.0000
     46  N         29.7620   24.0780   44.8560 N.am   84  VAL84      -0.1980
     47  CA        31.1130   24.1040   44.3020 C.3    84  VAL84       0.1595
     48  C         32.1330   23.4790   45.2580 C.2    84  VAL84       0.2287
     49  O         32.9990   22.7270   44.8240 O.2    84  VAL84      -0.2864
     50  CB        31.5450   25.5370   43.9150 C.3    84  VAL84       0.0276
     51  CG1       33.0170   25.5730   43.5160 C.3    84  VAL84       0.0022
     52  CG2       30.6740   26.0560   42.7800 C.3    84  VAL84       0.0022
     53  N         31.7420   19.8500   44.8830 N.3    87  ALA87      -0.1245
     54  CA        32.3420   19.4390   43.6100 C.3    87  ALA87       0.1562
     55  C         33.8610   19.3180   43.7250 C.2    87  ALA87       0.2260
     56  O         34.4640   18.3990   43.1730 O.2    87  ALA87      -0.2867
     57  CB        31.9750   20.4390   42.5060 C.3    87  ALA87       0.0290
     58  N         35.5000   20.9930   32.4550 N.3   123  SER123     -0.1217
     59  CA        36.5080   21.9780   32.8070 C.3   123  SER123      0.1889
     60  C         37.8710   21.2970   32.9140 C.2   123  SER123      0.2288
     61  O         38.0960   20.4960   33.8250 O.2   123  SER123     -0.2866
     62  CB        36.1430   22.6490   34.1280 C.3   123  SER123      0.2089
     63  OG        37.1890   23.4920   34.5690 O.3   123  SER123     -0.2183
     64  N         39.4880   22.0520   36.3300 N.3   126  PHE126     -0.1241
     65  CA        38.7670   21.3730   37.4050 C.3   126  PHE126      0.1605
     66  C         39.1690   19.9010   37.5370 C.2   126  PHE126      0.2264
     67  O         39.3210   19.3890   38.6430 O.2   126  PHE126     -0.2867
     68  CB        37.2600   21.4690   37.1840 C.3   126  PHE126      0.0534
     69  CG        36.4520   20.7280   38.2100 C.ar  126  PHE126     -0.0203
     70  CD1       36.3570   21.2020   39.5180 C.ar  126  PHE126     -0.0042
     71  CD2       35.7890   19.5560   37.8750 C.ar  126  PHE126     -0.0042
     72  CE1       35.6130   20.5130   40.4680 C.ar  126  PHE126     -0.0003
     73  CE2       35.0450   18.8660   38.8170 C.ar  126  PHE126     -0.0003
     74  CZ        34.9580   19.3400   40.1150 C.ar  126  PHE126     -0.0000
     75  N         34.9680   24.3600   29.4130 N.3   163  ILE163     -0.1245
     76  CA        34.5770   25.2570   30.4960 C.3   163  ILE163      0.1561
     77  C         35.7880   25.9320   31.1340 C.2   163  ILE163      0.2260
     78  O         36.6760   25.2640   31.6730 O.2   163  ILE163     -0.2867
     79  CB        33.8080   24.5110   31.6070 C.3   163  ILE163      0.0252
     80  CG1       32.6500   23.6900   31.0210 C.3   163  ILE163      0.0019
     81  CG2       33.2870   25.5040   32.6500 C.3   163  ILE163      0.0019
     82  CD1       31.8950   22.8680   32.0630 C.3   163  ILE163      0.0001
     83  N         36.4190   28.2010   34.3720 N.3   165  ASP165     -0.1225
     84  CA        35.6390   28.2960   35.6040 C.3   165  ASP165      0.1805
     85  C         36.3300   29.0800   36.7150 C.2   165  ASP165      0.2598
     86  O         37.5170   29.4160   36.6160 O.2   165  ASP165     -0.2718
     87  CB        35.2130   26.8970   36.0890 C.3   165  ASP165      0.1424
     88  CG        36.3840   25.9280   36.2520 C.2   165  ASP165      0.3668
     89  OD1       37.5570   26.3310   36.1250 O.co2 165  ASP165     -0.2456
     90  OD2       36.1190   24.7380   36.5220 O.co2 165  ASP165     -0.2456
     91  N         35.5430   29.3820   37.7470 N.am  166  THR166     -0.1953
     92  CA        35.9740   30.1420   38.9140 C.3   166  THR166      0.1897
     93  C         35.5810   29.3840   40.1880 C.2   166  THR166      0.2313
     94  O         34.5020   28.7920   40.2570 O.2   166  THR166     -0.2863
     95  CB        35.2960   31.5310   38.9340 C.3   166  THR166      0.1794
     96  OG1       35.6370   32.2540   37.7420 O.3   166  THR166     -0.2208
     97  CG2       35.7160   32.3380   40.1640 C.3   166  THR166      0.0378
     98  N         37.8520   27.1800   42.1940 N.3   168  HIS168     -0.1241
     99  CA        38.6690   26.0320   42.5940 C.3   168  HIS168      0.1621
    100  C         40.1550   26.3440   42.4040 C.2   168  HIS168      0.2264
    101  O         40.5100   27.2780   41.6780 O.2   168  HIS168     -0.2867
    102  CB        38.2680   24.7670   41.8180 C.3   168  HIS168      0.0745
    103  CG        38.6610   24.7890   40.3720 C.ar  168  HIS168      0.0817
    104  ND1       39.9230   24.4420   39.9410 N.ar  168  HIS168     -0.2268
    105  CD2       37.9580   25.1100   39.2590 C.ar  168  HIS168      0.1154
    106  CE1       39.9860   24.5620   38.6280 C.ar  168  HIS168      0.1986
    107  NE2       38.8060   24.9640   38.1890 N.ar  168  HIS168     -0.2212
    108  N         31.6860   28.5310   34.1850 N.3   193  GLY193     -0.1210
    109  CA        30.9350   28.0380   35.3380 C.3   193  GLY193      0.1956
    110  C         31.6840   28.2090   36.6520 C.2   193  GLY193      0.2612
    111  O         32.6170   29.0050   36.7520 O.2   193  GLY193     -0.2717
    112  N         31.2890   27.4220   37.6480 N.am  194  GLY194     -0.1956
    113  CA        31.7010   27.6110   39.0330 C.3   194  GLY194      0.1869
    114  C         30.9030   28.7290   39.6800 C.2   194  GLY194      0.2309
    115  O         29.7000   28.8610   39.4410 O.2   194  GLY194     -0.2863
    116  N         27.2890   30.3400   32.0440 N.3   219  HIS219     -0.1241
    117  CA        26.4020   30.3330   33.2050 C.3   219  HIS219      0.1621
    118  C         26.1440   31.7690   33.6390 C.2   219  HIS219      0.2264
    119  O         27.0780   32.4720   34.0260 O.2   219  HIS219     -0.2867
    120  CB        27.0430   29.6000   34.3920 C.3   219  HIS219      0.0745
    121  CG        27.1230   28.1120   34.2400 C.ar  219  HIS219      0.0817
    122  ND1       27.8490   27.4940   33.2440 N.ar  219  HIS219     -0.2268
    123  CD2       26.5970   27.1170   34.9950 C.ar  219  HIS219      0.1154
    124  CE1       27.7470   26.1830   33.3800 C.ar  219  HIS219      0.1986
    125  NE2       27.0010   25.9290   34.4390 N.ar  219  HIS219     -0.2212
    126  N         21.6930   32.4090   37.3090 N.3   222  GLU222     -0.1245
    127  CA        21.3740   31.2190   38.0890 C.3   222  GLU222      0.1567
    128  C         21.2910   31.5690   39.5620 C.2   222  GLU222      0.2260
    129  O         20.2860   31.2910   40.2110 O.2   222  GLU222     -0.2867
    130  CB        22.4440   30.1480   37.9070 C.3   222  GLU222      0.0388
    131  CG        22.2160   28.9070   38.7800 C.3   222  GLU222      0.1160
    132  CD        23.4010   27.9690   38.8180 C.2   222  GLU222      0.3649
    133  OE1       24.4840   28.3330   38.3060 O.co2 222  GLU222     -0.2457
    134  OE2       23.2490   26.8670   39.3770 O.co2 222  GLU222     -0.2457
    135  N         21.4360   28.1390   32.4610 N.3   246  HIS246     -0.1241
    136  CA        20.3780   28.5040   33.4140 C.3   246  HIS246      0.1621
    137  C         19.5550   29.7040   32.9260 C.2   246  HIS246      0.2264
    138  O         18.4940   29.5140   32.3360 O.2   246  HIS246     -0.2867
    139  CB        20.9220   28.7310   34.8340 C.3   246  HIS246      0.0745
    140  CG        21.6550   27.5540   35.3950 C.ar  246  HIS246      0.0817
    141  ND1       21.0080   26.4750   35.9560 N.ar  246  HIS246     -0.2268
    142  CD2       22.9790   27.2880   35.4850 C.ar  246  HIS246      0.1154
    143  CE1       21.9020   25.5920   36.3660 C.ar  246  HIS246      0.1986
    144  NE2       23.1070   26.0610   36.0930 N.ar  246  HIS246     -0.2212
    145  N         18.5040   20.9480   39.3940 N.3   272  SER272     -0.1217
    146  CA        19.6630   21.7200   39.8530 C.3   272  SER272      0.1889
    147  C         19.2510   23.0130   40.5600 C.2   272  SER272      0.2288
    148  O         19.7590   23.3280   41.6360 O.2   272  SER272     -0.2866
    149  CB        20.5720   22.0580   38.6670 C.3   272  SER272      0.2089
    150  OG        21.6870   22.8280   39.0820 O.3   272  SER272     -0.2183
    151  N         19.9120   23.6440   44.6020 N.3   276  LEU276     -0.1245
    152  CA        20.8240   24.7340   44.9770 C.3   276  LEU276      0.1561
    153  C         20.0850   25.9420   45.5820 C.2   276  LEU276      0.2260
    154  O         20.7100   26.9440   45.9300 O.2   276  LEU276     -0.2867
    155  CB        21.6620   25.1740   43.7640 C.3   276  LEU276      0.0270
    156  CG        22.9080   24.3300   43.4590 C.3   276  LEU276      0.0019
    157  CD1       22.5430   22.8880   43.1330 C.3   276  LEU276      0.0001
    158  CD2       23.7250   24.9560   42.3310 C.3   276  LEU276      0.0001
    159  N         22.1960   18.9880   33.9980 N.3   301  ASP301     -0.1225
    160  CA        23.2580   19.7350   34.6810 C.3   301  ASP301      0.1805
    161  C         24.3590   18.8120   35.2320 C.2   301  ASP301      0.2597
    162  O         25.4460   18.7510   34.6590 O.2   301  ASP301     -0.2718
    163  CB        22.6860   20.6620   35.7740 C.3   301  ASP301      0.1424
    164  CG        23.5450   21.9060   36.0170 C.2   301  ASP301      0.3668
    165  OD1       24.5540   22.0990   35.3100 O.co2 301  ASP301     -0.2456
    166  OD2       23.2020   22.7000   36.9250 O.co2 301  ASP301     -0.2456
    167  N         24.0800   18.0950   36.3240 N.am  302  ASP302     -0.1974
    168  CA        25.0870   17.2530   36.9920 C.3   302  ASP302      0.1709
    169  C         24.4650   15.9860   37.5800 C.2   302  ASP302      0.2293
    170  O         24.2190   15.9180   38.7850 O.2   302  ASP302     -0.2864
    171  CB        25.7890   18.0210   38.1200 C.3   302  ASP302      0.1436
    172  CG        26.3600   19.3500   37.6670 C.2   302  ASP302      0.3671
    173  OD1       27.5630   19.4020   37.3320 O.co2 302  ASP302     -0.2456
    174  OD2       25.5990   20.3390   37.6470 O.co2 302  ASP302     -0.2456
@<TRIPOS>BOND
     1    75    76    1
     2    76    77    1
     3    76    79    1
     4    80    79    1
     5    80    82    1
     6    77    78    2
     7    79    81    1
     8   116   117    1
     9   138   137    2
    10    58    59    1
    11   135   136    1
    12     1     2    1
    13    59    60    1
    14    59    62    1
    15    60    61    2
    16     2     3    1
    17     2     5    1
    18   137   136    1
    19     3     4    2
    20   117   118    1
    21   117   120    1
    22   122   124   ar
    23   122   121   ar
    24   124   125   ar
    25   136   139    1
    26    11    12    1
    27   118   119    2
    28   159   160    1
    29    62    63    1
    30     8    10   ar
    31     8     6   ar
    32   108   109    1
    33    10     9   ar
    34   121   120    1
    35   121   123   ar
    36     6     5    1
    37     6     7   ar
    38     9     7   ar
    39    83    84    1
    40    18    16   ar
    41   125   123   ar
    42    17    16   ar
    43    16    15    1
    44   162   161    2
    45   160   161    1
    46   160   163    1
    47    12    15    1
    48    12    13    1
    49   139   140    1
    50   161   167   am
    51   165   164   ar
    52   109   110    1
    53   140   142   ar
    54   140   141   ar
    55   142   144   ar
    56    84    87    1
    57    84    85    1
    58   163   164    1
    59   141   143   ar
    60   164   166   ar
    61    13    19   am
    62    13    14    2
    63    19    20    1
    64    87    88    1
    65   144   143   ar
    66    89    88   ar
    67    88    90   ar
    68   167   168    1
    69    64    65    1
    70    86    85    2
    71   110   111    2
    72   110   112   am
    73    85    91   am
    74    21    20    1
    75    21    22    2
    76   168   169    1
    77   168   171    1
    78    20    23    1
    79    68    65    1
    80    68    69    1
    81   126   127    1
    82   173   172   ar
    83    65    66    1
    84    66    67    2
    85   169   170    2
    86   174   172   ar
    87   112   113    1
    88   172   171    1
    89    96    95    1
    90    91    92    1
    91    23    24    1
    92    71    69   ar
    93    71    73   ar
    94   130   127    1
    95   130   131    1
    96   127   128    1
    97   107   106   ar
    98   107   105   ar
    99    69    70   ar
   100   133   132   ar
   101    24    25    1
   102    24    26    1
   103   106   104   ar
   104   149   150    1
   105   149   146    1
   106   131   132    1
   107    73    74   ar
   108   132   134   ar
   109    92    95    1
   110    92    93    1
   111    95    97    1
   112   113   114    1
   113   105   103   ar
   114   145   146    1
   115   115   114    2
   116    70    72   ar
   117   128   129    2
   118   146   147    1
   119   104   103   ar
   120    74    72   ar
   121    93    94    2
   122   103   102    1
   123   147   148    2
   124    45    44   ar
   125    45    43   ar
   126    44    42   ar
   127    34    32    1
   128    33    32    1
   129   101   100    2
   130    43    41   ar
   131   102    99    1
   132    42    40   ar
   133    32    31    1
   134    98    99    1
   135   158   156    1
   136   100    99    1
   137    57    54    1
   138    52    50    1
   139    41    40   ar
   140    40    39    1
   141   157   156    1
   142    56    55    2
   143    31    28    1
   144   156   155    1
   145    51    50    1
   146    54    55    1
   147    54    53    1
   148   155   152    1
   149    50    47    1
   150    47    46    1
   151    47    48    1
   152    39    36    1
   153    28    29    1
   154    28    27    1
   155    30    29    2
   156   151   152    1
   157    38    37    2
   158    49    48    2
   159    46    37   am
   160   152   153    1
   161    37    36    1
   162    36    35    1
   163   153   154    2
