@<TRIPOS>MOLECULE
tmp/2pgtA01.pdb
 87 85 0 0 0
SMALL
GASTEIGER

@<TRIPOS>ATOM
      1  N          6.9530  -17.8540    6.1960 N.3    23  ALA23      -0.1245
      2  CA         6.6890  -19.3120    6.0860 C.3    23  ALA23       0.1562
      3  C          5.6370  -19.7740    7.0680 C.2    23  ALA23       0.2260
      4  O          4.6580  -20.4440    6.6900 O.2    23  ALA23      -0.2867
      5  CB         7.9810  -20.0360    6.3470 C.3    23  ALA23       0.0290
      6  N          2.2190  -18.8320    5.9490 N.3    26  GLY26      -0.1210
      7  CA         1.7080  -19.3940    4.6930 C.3    26  GLY26       0.1956
      8  C          1.7550  -18.4340    3.5130 C.2    26  GLY26       0.2612
      9  O          0.9300  -18.5430    2.5870 O.2    26  GLY26      -0.2717
     10  N          2.7190  -17.5190    3.4990 N.am   27  GLN27      -0.1965
     11  CA         2.8480  -16.5600    2.4150 C.3    27  GLN27       0.1733
     12  C          4.0250  -16.9040    1.5100 C.2    27  GLN27       0.2617
     13  O          5.0460  -17.3110    2.0310 O.2    27  GLN27      -0.2715
     14  CB         3.2730  -15.1740    2.9570 C.3    27  GLN27       0.0408
     15  CG         2.2220  -14.6040    3.8770 C.3    27  GLN27       0.0908
     16  CD         0.9550  -14.2600    3.1770 C.2    27  GLN27       0.2608
     17  OE1        0.9300  -13.7530    2.0520 O.2    27  GLN27      -0.2717
     18  NE2       -0.1140  -14.5500    3.8970 N.am   27  GLN27      -0.0878
     19  N          3.9120  -16.6140    0.2200 N.am   28  SER28      -0.1936
     20  CA         5.0290  -16.8770   -0.6660 C.3    28  SER28       0.2055
     21  C          5.7990  -15.5730   -0.8230 C.2    28  SER28       0.2643
     22  O          5.2150  -14.5320   -0.6720 O.2    28  SER28      -0.2714
     23  CB         4.5320  -17.3200   -2.0650 C.3    28  SER28       0.2130
     24  OG         3.0910  -17.2570   -2.0310 O.3    28  SER28      -0.2179
     25  N          7.0490  -15.6630   -1.1460 N.am   29  TRP29      -0.1959
     26  CA         7.8610  -14.4770   -1.3720 C.3    29  TRP29       0.1771
     27  C          8.9280  -14.9570   -2.3540 C.2    29  TRP29       0.2620
     28  O          9.1120  -16.1710   -2.4020 O.2    29  TRP29      -0.2715
     29  CB         8.5610  -14.0610   -0.0960 C.3    29  TRP29       0.0590
     30  CG         9.5970  -14.9030    0.5420 C.ar   29  TRP29       0.0006
     31  CD1       10.9420  -14.7670    0.4460 C.ar   29  TRP29       0.0946
     32  CD2        9.3970  -15.9980    1.4550 C.ar   29  TRP29       0.0152
     33  NE1       11.5900  -15.7000    1.2150 N.ar   29  TRP29      -0.2442
     34  CE2       10.6360  -16.4510    1.8600 C.ar   29  TRP29       0.0810
     35  CE3        8.2530  -16.6680    1.9210 C.ar   29  TRP29       0.0012
     36  CZ2       10.8060  -17.5100    2.7650 C.ar   29  TRP29       0.0191
     37  CZ3        8.4100  -17.6820    2.8610 C.ar   29  TRP29       0.0001
     38  CH2        9.6770  -18.0810    3.2390 C.ar   29  TRP29       0.0015
     39  N          9.6160  -14.0610   -2.9850 N.am   30  LYS30      -0.1963
     40  CA        10.6950  -14.4960   -3.8840 C.3    30  LYS30       0.1728
     41  C         11.9760  -14.0610   -3.2250 C.2    30  LYS30       0.2616
     42  O         11.9890  -12.9650   -2.6070 O.2    30  LYS30      -0.2715
     43  CB        10.4880  -13.6900   -5.1870 C.3    30  LYS30       0.0311
     44  CG        11.6240  -13.5450   -6.1410 C.3    30  LYS30       0.0038
     45  CD        12.0480  -14.8220   -6.8410 C.3    30  LYS30       0.0206
     46  CE        13.3580  -14.6040   -7.6170 C.3    30  LYS30       0.1093
     47  NZ        14.0680  -15.9170   -7.8090 N.3    30  LYS30      -0.1314
     48  N         13.0490  -14.8030   -3.3760 N.am   31  GLU31      -0.1977
     49  CA        14.3290  -14.3780   -2.8680 C.3    31  GLU31       0.1602
     50  C         15.1460  -13.8350   -4.0480 C.2    31  GLU31       0.2287
     51  O         15.2820  -14.5320   -5.0780 O.2    31  GLU31      -0.2864
     52  CB        15.1060  -15.5640   -2.2710 C.3    31  GLU31       0.0415
     53  CG        14.5200  -16.1800   -1.0220 C.3    31  GLU31       0.1163
     54  CD        14.7670  -15.4370    0.2810 C.2    31  GLU31       0.3649
     55  OE1       15.6900  -14.6220    0.3840 O.co2  31  GLU31      -0.2457
     56  OE2       13.9850  -15.6540    1.2280 O.co2  31  GLU31      -0.2457
     57  N          8.4920  -27.4150    9.2770 N.3   192  ALA192     -0.1231
     58  CA         8.8130  -27.7860    7.8700 C.3   192  ALA192      0.1694
     59  C          9.8230  -26.8180    7.2730 C.2   192  ALA192      0.2592
     60  O         10.8720  -27.1980    6.7450 O.2   192  ALA192     -0.2718
     61  CB         7.5170  -27.7230    7.0950 C.3   192  ALA192      0.0304
     62  N          9.6060  -25.5050    7.4450 N.am  193  PHE193     -0.1976
     63  CA        10.5340  -24.5090    6.9170 C.3   193  PHE193      0.1639
     64  C         11.8860  -24.6180    7.5340 C.2   193  PHE193      0.2290
     65  O         12.8830  -24.4640    6.8620 O.2   193  PHE193     -0.2864
     66  CB         9.9820  -23.0690    7.1770 C.3   193  PHE193      0.0560
     67  CG        10.9390  -22.0100    6.6760 C.ar  193  PHE193     -0.0200
     68  CD1       11.0070  -21.7200    5.2970 C.ar  193  PHE193     -0.0042
     69  CD2       11.7720  -21.3490    7.5410 C.ar  193  PHE193     -0.0042
     70  CE1       11.9530  -20.8060    4.8650 C.ar  193  PHE193     -0.0003
     71  CE2       12.6460  -20.3800    7.1090 C.ar  193  PHE193     -0.0003
     72  CZ        12.7440  -20.1090    5.7500 C.ar  193  PHE193     -0.0000
     73  N         14.1020  -27.4060    6.0520 N.3   196  SER196     -0.1217
     74  CA        14.3340  -27.3430    4.5970 C.3   196  SER196      0.1889
     75  C         15.6580  -26.7820    4.2130 C.2   196  SER196      0.2288
     76  O         16.3260  -26.0570    4.9540 O.2   196  SER196     -0.2866
     77  CB        13.1710  -26.6010    3.9520 C.3   196  SER196      0.2089
     78  OG        13.2050  -25.2060    4.1580 O.3   196  SER196     -0.2183
     79  N         16.5420  -24.5720    2.1480 N.3   198  GLU198     -0.1245
     80  CA        16.5100  -23.1240    1.9350 C.3   198  GLU198      0.1567
     81  C         16.9410  -22.3630    3.1910 C.2   198  GLU198      0.2260
     82  O         17.4590  -21.2590    3.1010 O.2   198  GLU198     -0.2867
     83  CB        15.0530  -22.7980    1.7020 C.3   198  GLU198      0.0388
     84  CG        14.6750  -21.3760    1.4410 C.3   198  GLU198      0.1160
     85  CD        13.1950  -21.2680    1.1460 C.2   198  GLU198      0.3649
     86  OE1       12.5200  -22.3000    1.0500 O.co2 198  GLU198     -0.2457
     87  OE2       12.7310  -20.1360    0.9810 O.co2 198  GLU198     -0.2457
@<TRIPOS>BOND
     1    47    46    1
     2    46    45    1
     3    45    44    1
     4    44    43    1
     5    43    40    1
     6    51    50    2
     7    50    49    1
     8    40    41    1
     9    40    39    1
    10    48    41   am
    11    48    49    1
    12    41    42    2
    13    39    27   am
    14    49    52    1
    15    28    27    2
    16    27    26    1
    17    52    53    1
    18    23    24    1
    19    23    20    1
    20    26    25    1
    21    26    29    1
    22    25    21   am
    23    53    54    1
    24    21    22    2
    25    21    20    1
    26    20    19    1
    27    29    30    1
    28    19    12   am
    29    54    55   ar
    30    54    56   ar
    31    31    30   ar
    32    31    33   ar
    33    30    32   ar
    34    87    85   ar
    35    86    85   ar
    36    85    84    1
    37    33    34   ar
    38    84    83    1
    39    32    34   ar
    40    32    35   ar
    41    12    13    2
    42    12    11    1
    43    83    80    1
    44    34    36   ar
    45    35    37   ar
    46    80    79    1
    47    80    81    1
    48    17    16    2
    49    11    14    1
    50    11    10    1
    51     9     8    2
    52    36    38   ar
    53    37    38   ar
    54    14    15    1
    55    82    81    2
    56    16    15    1
    57    16    18   am
    58    10     8   am
    59     8     7    1
    60    77    78    1
    61    77    74    1
    62    75    74    1
    63    75    76    2
    64    74    73    1
    65     7     6    1
    66    70    68   ar
    67    70    72   ar
    68    68    67   ar
    69    72    71   ar
    70     2     1    1
    71     2     5    1
    72     2     3    1
    73    67    66    1
    74    67    69   ar
    75     4     3    2
    76    60    59    2
    77    65    64    2
    78    63    66    1
    79    63    62    1
    80    63    64    1
    81    61    58    1
    82    71    69   ar
    83    59    62   am
    84    59    58    1
    85    58    57    1
