@<TRIPOS>MOLECULE
tmp/2pgtA00.pdb
 173 169 0 0 0
SMALL
GASTEIGER

@<TRIPOS>ATOM
      1  N         18.7850   -9.9230   -0.3160 N.3     8  TYR8       -0.1227
      2  CA        19.8050   -9.9870    0.7480 C.3     8  TYR8        0.1736
      3  C         20.9050  -10.9460    0.3640 C.2     8  TYR8        0.2595
      4  O         20.8290  -11.6250   -0.6930 O.2     8  TYR8       -0.2718
      5  CB        19.0030  -10.5840    1.9420 C.3     8  TYR8        0.0548
      6  CG        19.7800  -10.5660    3.2390 C.ar    8  TYR8       -0.0200
      7  CD1       20.2650   -9.3620    3.7530 C.ar    8  TYR8       -0.0009
      8  CD2       19.9330  -11.7160    3.9940 C.ar    8  TYR8       -0.0009
      9  CE1       20.9420   -9.3160    4.9750 C.ar    8  TYR8        0.0417
     10  CE2       20.6090  -11.6800    5.2150 C.ar    8  TYR8        0.0417
     11  CZ        21.1010  -10.4840    5.6820 C.ar    8  TYR8        0.1957
     12  OH        21.7600  -10.4390    6.9170 O.3     8  TYR8       -0.2866
     13  N         21.9720  -10.9820    1.1120 N.am    9  PHE9       -0.1963
     14  CA        23.0720  -11.8880    0.9400 C.3     9  PHE9        0.1756
     15  C         22.5700  -13.3000    1.2420 C.2     9  PHE9        0.2461
     16  O         21.4290  -13.4450    1.7430 O.2     9  PHE9       -0.2730
     17  CB        24.1720  -11.4800    1.9010 C.3     9  PHE9        0.0574
     18  CG        24.6470  -10.0770    1.6740 C.ar    9  PHE9       -0.0200
     19  CD1       25.5200   -9.7960    0.6520 C.ar    9  PHE9       -0.0042
     20  CD2       24.2600   -9.0630    2.5530 C.ar    9  PHE9       -0.0042
     21  CE1       25.9820   -8.5020    0.4600 C.ar    9  PHE9       -0.0003
     22  CE2       24.7370   -7.7770    2.3670 C.ar    9  PHE9       -0.0003
     23  CZ        25.6040   -7.4970    1.3310 C.ar    9  PHE9       -0.0000
     24  N         23.3080  -14.3050    0.8100 N.am   10  PRO10      -0.2716
     25  CA        22.8350  -15.6910    0.9680 C.3    10  PRO10       0.1536
     26  C         23.1890  -16.1880    2.3670 C.2    10  PRO10       0.2598
     27  O         24.1030  -16.9940    2.5800 O.2    10  PRO10      -0.2715
     28  CB        23.6090  -16.3970   -0.1370 C.3    10  PRO10       0.0310
     29  CG        24.9320  -15.6910   -0.1370 C.3    10  PRO10       0.0237
     30  CD        24.5900  -14.2240    0.1170 C.3    10  PRO10       0.0939
     31  N         22.5730  -15.5550    3.3830 N.am   11  VAL11      -0.1978
     32  CA        22.8140  -15.8440    4.7830 C.3    11  VAL11       0.1596
     33  C         21.4860  -15.6900    5.5170 C.2    11  VAL11       0.2287
     34  O         20.4920  -15.1830    4.9750 O.2    11  VAL11      -0.2864
     35  CB        23.8960  -15.0570    5.4890 C.3    11  VAL11       0.0276
     36  CG1       25.2140  -15.0660    4.7140 C.3    11  VAL11       0.0022
     37  CG2       23.5680  -13.5990    5.7500 C.3    11  VAL11       0.0022
     38  N         21.1350  -14.3410    8.7490 N.3    13  GLY13      -0.1210
     39  CA        21.4140  -13.0370    9.3530 C.3    13  GLY13       0.1956
     40  C         20.1880  -12.2950    9.8330 C.2    13  GLY13       0.2611
     41  O         19.3840  -12.8290   10.6010 O.2    13  GLY13      -0.2717
     42  N         19.9730  -11.0820    9.2840 N.am   14  ARG14      -0.1979
     43  CA        18.8260  -10.2490    9.6060 C.3    14  ARG14       0.1597
     44  C         17.5780  -10.5750    8.8310 C.2    14  ARG14       0.2287
     45  O         16.5690   -9.8780    8.9340 O.2    14  ARG14      -0.2864
     46  CB        19.2050   -8.7550    9.4350 C.3    14  ARG14       0.0334
     47  CG        19.9910   -8.2390   10.6220 C.3    14  ARG14       0.0492
     48  CD        19.9590   -6.7450   10.8350 C.3    14  ARG14       0.2205
     49  NE        20.8570   -6.4190   11.9670 N.pl3  14  ARG14      -0.0865
     50  CZ        20.3130   -6.0750   13.1470 C.cat  14  ARG14       0.5346
     51  NH1       19.0040   -6.0570   13.2710 N.pl3  14  ARG14       0.1354
     52  NH2       21.1290   -5.6950   14.1350 N.pl3  14  ARG14       0.1354
     53  N         28.5100  -11.4810   -2.6350 N.3    36  VAL36      -0.1245
     54  CA        29.4490  -10.4850   -2.1550 C.3    36  VAL36       0.1561
     55  C         30.0930   -9.7970   -3.3550 C.2    36  VAL36       0.2260
     56  O         30.3790   -8.5920   -3.2870 O.2    36  VAL36      -0.2867
     57  CB        30.5150  -11.1550   -1.2900 C.3    36  VAL36       0.0252
     58  CG1       31.3210  -12.1510   -2.1270 C.3    36  VAL36       0.0019
     59  CG2       31.4550  -10.1500   -0.6520 C.3    36  VAL36       0.0019
     60  N         27.9240   -7.0710   -4.7350 N.3    39  TRP39      -0.1241
     61  CA        27.8590   -5.9940   -3.7530 C.3    39  TRP39       0.1605
     62  C         29.0950   -5.1070   -3.8700 C.2    39  TRP39       0.2264
     63  O         28.9490   -3.8840   -3.8630 O.2    39  TRP39      -0.2867
     64  CB        27.8000   -6.5640   -2.3330 C.3    39  TRP39       0.0550
     65  CG        27.5330   -5.5770   -1.2350 C.ar   39  TRP39       0.0003
     66  CD1       28.4140   -5.1880   -0.2610 C.ar   39  TRP39       0.0946
     67  CD2       26.3290   -4.8260   -1.0160 C.ar   39  TRP39       0.0152
     68  NE1       27.8160   -4.3010    0.5830 N.ar   39  TRP39      -0.2442
     69  CE2       26.5440   -4.0380    0.1300 C.ar   39  TRP39       0.0810
     70  CE3       25.1020   -4.7440   -1.6610 C.ar   39  TRP39       0.0012
     71  CZ2       25.5890   -3.1600    0.6240 C.ar   39  TRP39       0.0191
     72  CZ3       24.1340   -3.8840   -1.1870 C.ar   39  TRP39       0.0001
     73  CH2       24.3870   -3.1150   -0.0270 C.ar   39  TRP39       0.0015
     74  N         24.5160   -1.0320   -3.8630 N.3    45  LYS45      -0.1245
     75  CA        24.7310   -0.4170   -2.5590 C.3    45  LYS45       0.1561
     76  C         24.3570    1.0590   -2.5800 C.2    45  LYS45       0.2260
     77  O         23.4650    1.5390   -1.8660 O.2    45  LYS45      -0.2867
     78  CB        26.2130   -0.5340   -2.1750 C.3    45  LYS45       0.0271
     79  CG        26.4990   -0.0360   -0.7550 C.3    45  LYS45       0.0035
     80  CD        27.9290   -0.1810   -0.3360 C.3    45  LYS45       0.0206
     81  CE        28.3030    0.3890    1.0290 C.3    45  LYS45       0.1093
     82  NZ        27.3510    0.0000    2.0930 N.3    45  LYS45      -0.1314
     83  N         22.5900    2.3180    2.4080 N.3    51  GLY51      -0.1210
     84  CA        23.7990    1.6300    1.9350 C.3    51  GLY51       0.1956
     85  C         23.9080    0.1720    2.3880 C.2    51  GLY51       0.2612
     86  O         25.0090   -0.3800    2.3670 O.2    51  GLY51      -0.2717
     87  N         22.7810   -0.4160    2.7930 N.am   52  GLN52      -0.1965
     88  CA        22.8250   -1.7930    3.3070 C.3    52  GLN52       0.1733
     89  C         21.5880   -2.5890    2.9440 C.2    52  GLN52       0.2616
     90  O         20.5720   -2.0550    2.4980 O.2    52  GLN52      -0.2715
     91  CB        22.8830   -1.6570    4.8580 C.3    52  GLN52       0.0408
     92  CG        24.1760   -1.0500    5.3860 C.3    52  GLN52       0.0908
     93  CD        24.3570   -1.3310    6.8690 C.2    52  GLN52       0.2608
     94  OE1       23.4430   -1.0860    7.6780 O.2    52  GLN52      -0.2717
     95  NE2       25.4960   -1.8740    7.2390 N.am   52  GLN52      -0.0878
     96  N         21.6760   -3.9290    3.1080 N.am   53  LEU53      -0.1964
     97  CA        20.5450   -4.8350    2.9510 C.3    53  LEU53       0.1713
     98  C         20.2190   -5.4050    4.3370 C.2    53  LEU53       0.2458
     99  O         21.0520   -5.3150    5.2560 O.2    53  LEU53      -0.2730
    100  CB        20.9810   -6.0120    2.0650 C.3    53  LEU53       0.0310
    101  CG        21.3090   -5.6040    0.6110 C.3    53  LEU53       0.0022
    102  CD1       21.8730   -6.7910   -0.1650 C.3    53  LEU53       0.0001
    103  CD2       20.0780   -5.0700   -0.1170 C.3    53  LEU53       0.0001
    104  N         19.0620   -6.0030    4.5150 N.am   54  PRO54      -0.2727
    105  CA        18.1280   -6.2290    3.4580 C.3    54  PRO54       0.1402
    106  C         17.3130   -5.0700    2.9030 C.2    54  PRO54       0.2269
    107  O         17.0820   -4.0380    3.4860 O.2    54  PRO54      -0.2865
    108  CB        17.1240   -7.2340    4.1170 C.3    54  PRO54       0.0296
    109  CG        17.1350   -6.7720    5.5580 C.3    54  PRO54       0.0237
    110  CD        18.5890   -6.5370    5.8050 C.3    54  PRO54       0.0939
    111  N         15.7380   -1.7380    6.4290 N.3    65  GLN65      -0.1231
    112  CA        15.7030   -1.8830    7.9120 C.3    65  GLN65       0.1698
    113  C         14.9630   -3.1320    8.3030 C.2    65  GLN65       0.2593
    114  O         13.7600   -3.1690    8.1450 O.2    65  GLN65      -0.2718
    115  CB        15.1680   -0.6150    8.5980 C.3    65  GLN65       0.0381
    116  CG        16.0830    0.6250    8.4810 C.3    65  GLN65       0.0905
    117  CD        17.3450    0.4800    9.2700 C.2    65  GLN65       0.2608
    118  OE1       17.5150   -0.4340   10.1210 O.2    65  GLN65      -0.2717
    119  NE2       18.2950    1.3490    9.0850 N.am   65  GLN65      -0.0878
    120  N         15.6410   -4.1460    8.8100 N.am   66  SER66      -0.1938
    121  CA        14.9900   -5.4320    9.1470 C.3    66  SER66       0.2055
    122  C         13.8310   -5.3050   10.0940 C.2    66  SER66       0.2643
    123  O         12.8430   -5.9840    9.9430 O.2    66  SER66      -0.2714
    124  CB        15.9210   -6.4550    9.7370 C.3    66  SER66       0.2130
    125  OG        16.6160   -5.9840   10.8830 O.3    66  SER66      -0.2179
    126  N         13.9280   -4.4270   11.1160 N.am   67  ASN67      -0.1971
    127  CA        12.8030   -4.2730   12.0490 C.3    67  ASN67       0.1688
    128  C         11.6830   -3.5400   11.4380 C.2    67  ASN67       0.2292
    129  O         10.5310   -3.7930   11.8020 O.2    67  ASN67      -0.2864
    130  CB        13.2750   -3.5940   13.3530 C.3    67  ASN67       0.1181
    131  CG        14.2060   -4.5200   14.1310 C.2    67  ASN67       0.2629
    132  OD1       13.7980   -5.6200   14.5020 O.2    67  ASN67      -0.2716
    133  ND2       15.4450   -4.1530   14.3870 N.am   67  ASN67      -0.0877
    134  N         16.4140   -6.6270   19.6930 N.3    98  GLU98      -0.1245
    135  CA        17.3880   -5.9030   18.8560 C.3    98  GLU98       0.1567
    136  C         18.6390   -5.5220   19.6110 C.2    98  GLU98       0.2260
    137  O         19.7400   -5.6130   19.0550 O.2    98  GLU98      -0.2867
    138  CB        16.7580   -4.6440   18.2450 C.3    98  GLU98       0.0388
    139  CG        17.7250   -3.7750   17.4560 C.3    98  GLU98       0.1160
    140  CD        18.2940   -4.4450   16.2140 C.2    98  GLU98       0.3649
    141  OE1       17.6200   -5.3320   15.6240 O.co2  98  GLU98      -0.2457
    142  OE2       19.4760   -4.1920   15.8710 O.co2  98  GLU98      -0.2457
    143  N         26.0580   -9.5420   17.0030 N.3   105  VAL105     -0.1245
    144  CA        26.6750   -9.1800   15.7130 C.3   105  VAL105      0.1561
    145  C         28.0380   -8.5920   15.9330 C.2   105  VAL105      0.2260
    146  O         29.0610   -9.0080   15.3570 O.2   105  VAL105     -0.2867
    147  CB        25.6690   -8.2750   14.9860 C.3   105  VAL105      0.0252
    148  CG1       26.2140   -7.6320   13.7440 C.3   105  VAL105      0.0019
    149  CG2       24.4660   -9.1260   14.6090 C.3   105  VAL105      0.0019
    150  N         31.4320  -10.1760   14.4580 N.3   109  TYR109     -0.1241
    151  CA        32.2030   -9.3700   13.5310 C.3   109  TYR109      0.1605
    152  C         33.4080   -8.6730   14.0530 C.2   109  TYR109      0.2264
    153  O         34.1960   -8.1930   13.2290 O.2   109  TYR109     -0.2867
    154  CB        31.2710   -8.3380   12.8380 C.3   109  TYR109      0.0534
    155  CG        30.5030   -9.0810   11.7470 C.ar  109  TYR109     -0.0201
    156  CD1       31.0890   -9.3070   10.5050 C.ar  109  TYR109     -0.0009
    157  CD2       29.2550   -9.6150   12.0010 C.ar  109  TYR109     -0.0009
    158  CE1       30.4110  -10.0040    9.5100 C.ar  109  TYR109      0.0417
    159  CE2       28.5670  -10.3030   11.0200 C.ar  109  TYR109      0.0417
    160  CZ        29.1600  -10.5020    9.7780 C.ar  109  TYR109      0.1957
    161  OH        28.4540  -11.1630    8.8100 O.3   109  TYR109     -0.2866
    162  N         25.7790  -16.2150    9.7570 N.3   205  ASN205     -0.1225
    163  CA        26.3630  -14.9300    9.4970 C.3   205  ASN205      0.1785
    164  C         27.3190  -15.0020    8.3030 C.2   205  ASN205      0.2597
    165  O         27.8490  -16.0520    7.9180 O.2   205  ASN205     -0.2718
    166  CB        27.1870  -14.4230   10.6970 C.3   205  ASN205      0.1169
    167  CG        26.3550  -14.4770   11.9810 C.2   205  ASN205      0.2627
    168  OD1       25.3910  -13.7160   12.1590 O.2   205  ASN205     -0.2716
    169  ND2       26.6810  -15.3910   12.8660 N.am  205  ASN205     -0.0877
    170  N         27.5400  -13.8340    7.7260 N.am  206  GLY206     -0.1957
    171  CA        28.3770  -13.6440    6.5740 C.3   206  GLY206      0.1869
    172  C         29.8130  -14.0060    6.6760 C.2   206  GLY206      0.2309
    173  O         30.4090  -14.2960    5.6330 O.2   206  GLY206     -0.2863
@<TRIPOS>BOND
     1    60    61    1
     2    62    63    2
     3    62    61    1
     4    74    75    1
     5    61    64    1
     6    55    56    2
     7    55    54    1
     8    53    54    1
     9    76    75    1
    10    76    77    2
    11    75    78    1
    12    64    65    1
    13    78    79    1
    14    54    57    1
    15    58    57    1
    16    70    72   ar
    17    70    67   ar
    18    57    59    1
    19    65    67   ar
    20    65    66   ar
    21    72    73   ar
    22    67    69   ar
    23    79    80    1
    24     4     3    2
    25    80    81    1
    26     1     2    1
    27    66    68   ar
    28   102   101    1
    29    28    29    1
    30    28    25    1
    31    29    30    1
    32   103   101    1
    33    73    71   ar
    34    30    24    1
    35    69    68   ar
    36    69    71   ar
    37     3     2    1
    38     3    13   am
    39    21    19   ar
    40    21    23   ar
    41   101   100    1
    42    19    18   ar
    43     2     5    1
    44    24    25    1
    45    24    15   am
    46    14    13    1
    47    14    15    1
    48    14    17    1
    49    25    26    1
    50    81    82    1
    51    15    16    2
    52    23    22   ar
    53    18    17    1
    54    18    20   ar
    55    84    85    1
    56    84    83    1
    57     5     6    1
    58   100    97    1
    59    22    20   ar
    60    86    85    2
    61    26    27    2
    62    26    31   am
    63    85    87   am
    64    90    89    2
    65    87    88    1
    66   106   105    1
    67   106   107    2
    68    89    96   am
    69    89    88    1
    70    97    96    1
    71    97    98    1
    72     6     7   ar
    73     6     8   ar
    74    88    91    1
    75    31    32    1
    76   105   108    1
    77   105   104    1
    78     7     9   ar
    79     8    10   ar
    80   108   109    1
    81    98   104   am
    82    98    99    2
    83   104   110    1
    84    36    35    1
    85    32    35    1
    86    32    33    1
    87    91    92    1
    88    34    33    2
    89     9    11   ar
    90    10    11   ar
    91    92    93    1
    92    35    37    1
    93   109   110    1
    94   173   172    2
    95    11    12    1
    96   111   112    1
    97   171   172    1
    98   171   170    1
    99    93    95   am
   100    93    94    2
   101   170   164   am
   102   112   113    1
   103   112   115    1
   104   165   164    2
   105   114   113    2
   106   113   120   am
   107   164   163    1
   108   116   115    1
   109   116   117    1
   110    38    39    1
   111   161   160    1
   112   120   121    1
   113    44    45    2
   114    44    43    1
   115   119   117   am
   116   121   124    1
   117   121   122    1
   118   117   118    2
   119    42    43    1
   120    42    40   am
   121    39    40    1
   122    46    43    1
   123    46    47    1
   124   163   162    1
   125   163   166    1
   126   158   160   ar
   127   158   156   ar
   128   124   125    1
   129   160   159   ar
   130    40    41    2
   131   123   122    2
   132   122   126   am
   133   156   155   ar
   134    47    48    1
   135   166   167    1
   136    48    49    1
   137   159   157   ar
   138   126   127    1
   139   128   129    2
   140   128   127    1
   141   155   157   ar
   142   155   154    1
   143    49    50    2
   144   167   168    2
   145   167   169   am
   146   127   130    1
   147   154   151    1
   148    50    51    1
   149    50    52    1
   150   153   152    2
   151   130   131    1
   152   151   152    1
   153   151   150    1
   154   148   147    1
   155   131   133   am
   156   131   132    2
   157   149   147    1
   158   147   144    1
   159   146   145    2
   160   141   140   ar
   161   144   145    1
   162   144   143    1
   163   142   140   ar
   164   140   139    1
   165   139   138    1
   166   138   135    1
   167   135   136    1
   168   135   134    1
   169   137   136    2
