@<TRIPOS>MOLECULE
tmp/2ph4B00.pdb
 98 91 0 0 0
SMALL
GASTEIGER

@<TRIPOS>ATOM
      1  N        -42.0330    9.7720   18.6050 N.3     2  LEU2       -0.1245
      2  CA       -41.7240   10.0150   17.2310 C.3     2  LEU2        0.1561
      3  C        -41.8990    8.7930   16.3950 C.2     2  LEU2        0.2260
      4  O        -42.3920    8.8650   15.2750 O.2     2  LEU2       -0.2867
      5  CB       -40.2820   10.5010   17.1120 C.3     2  LEU2        0.0270
      6  CG       -40.2140   11.9970   16.9400 C.3     2  LEU2        0.0019
      7  CD1      -38.8830   12.4830   17.5670 C.3     2  LEU2        0.0001
      8  CD2      -40.4260   12.4090   15.4520 C.3     2  LEU2        0.0001
      9  N        -45.5400    8.2180   15.7630 N.3     5  LEU5       -0.1231
     10  CA       -46.0820    9.3430   15.0380 C.3     5  LEU5        0.1693
     11  C        -45.6050    9.1910   13.6030 C.2     5  LEU5        0.2592
     12  O        -46.3730    9.3560   12.7130 O.2     5  LEU5       -0.2718
     13  CB       -45.6180   10.6970   15.6510 C.3     5  LEU5        0.0284
     14  CG       -45.6400   11.9180   14.7070 C.3     5  LEU5        0.0019
     15  CD1      -47.0680   12.1950   14.2300 C.3     5  LEU5        0.0001
     16  CD2      -44.9770   13.1560   15.3350 C.3     5  LEU5        0.0001
     17  N        -44.3290    8.8960   13.3870 N.am    6  THR6       -0.1953
     18  CA       -43.7910    8.7140   12.0130 C.3     6  THR6        0.1897
     19  C        -44.4860    7.5370   11.3200 C.2     6  THR6        0.2313
     20  O        -44.8350    7.5640   10.1410 O.2     6  THR6       -0.2863
     21  CB       -42.2500    8.4350   12.0760 C.3     6  THR6        0.1794
     22  OG1      -41.6020    9.5110   12.7410 O.3     6  THR6       -0.2208
     23  CG2      -41.6540    8.2750   10.6900 C.3     6  THR6        0.0378
     24  N        -48.0920    8.5600   10.6000 N.3     9  VAL9       -0.1245
     25  CA       -48.1160    9.3960    9.4040 C.3     9  VAL9        0.1561
     26  C        -47.8620    8.6390    8.1010 C.2     9  VAL9        0.2260
     27  O        -48.5340    8.8590    7.1340 O.2     9  VAL9       -0.2867
     28  CB       -47.1750   10.6080    9.4970 C.3     9  VAL9        0.0252
     29  CG1      -47.3620   11.4360    8.2230 C.3     9  VAL9        0.0019
     30  CG2      -47.5740   11.4550   10.6140 C.3     9  VAL9        0.0019
     31  N        -42.6060    9.8690    5.7170 N.3    17  PRO17      -0.2102
     32  CA       -42.9240   10.9650    6.6110 C.3    17  PRO17       0.1504
     33  C        -41.6960   11.7810    6.8370 C.2    17  PRO17       0.2575
     34  O        -41.7580   12.9880    7.1390 O.2    17  PRO17      -0.2718
     35  CB       -43.3180   10.2340    7.9100 C.3    17  PRO17       0.0282
     36  CG       -43.7930    8.9370    7.4560 C.3    17  PRO17       0.0208
     37  CD       -42.7230    8.5890    6.4310 C.3    17  PRO17       0.0893
     38  N        -40.5620   11.1160    6.7230 N.am   18  VAL18      -0.1980
     39  CA       -39.3570   11.7740    7.0980 C.3    18  VAL18       0.1595
     40  C        -38.9870   12.7800    6.0630 C.2    18  VAL18       0.2287
     41  O        -38.5720   13.8700    6.4270 O.2    18  VAL18      -0.2864
     42  CB       -38.2490   10.8250    7.5640 C.3    18  VAL18       0.0276
     43  CG1      -36.8450   11.4460    7.3160 C.3    18  VAL18       0.0022
     44  CG2      -38.4800   10.5360    9.0550 C.3    18  VAL18       0.0022
     45  N        -42.3450   15.4700    5.7790 N.3    21  TYR21      -0.1227
     46  CA       -42.7440   16.2570    6.9400 C.3    21  TYR21       0.1736
     47  C        -41.6920   16.5940    7.9380 C.2    21  TYR21       0.2596
     48  O        -42.0030   17.0650    8.9930 O.2    21  TYR21      -0.2718
     49  CB       -43.9230   15.5740    7.6290 C.3    21  TYR21       0.0548
     50  CG       -45.0330   15.2160    6.6720 C.ar   21  TYR21      -0.0200
     51  CD1      -45.7900   16.2070    6.0600 C.ar   21  TYR21      -0.0009
     52  CD2      -45.3340   13.8760    6.3810 C.ar   21  TYR21      -0.0009
     53  CE1      -46.7980   15.8910    5.1940 C.ar   21  TYR21       0.0417
     54  CE2      -46.3750   13.5460    5.5460 C.ar   21  TYR21       0.0417
     55  CZ       -47.1080   14.5780    4.9420 C.ar   21  TYR21       0.1957
     56  OH       -48.1690   14.2720    4.0740 O.3    21  TYR21      -0.2866
     57  N        -40.4400   16.3950    7.6160 N.am   22  THR22      -0.1953
     58  CA       -39.3720   16.7340    8.5470 C.3    22  THR22       0.1897
     59  C        -39.2960   18.2490    8.6270 C.2    22  THR22       0.2313
     60  O        -39.1630   18.8420    9.6730 O.2    22  THR22      -0.2863
     61  CB       -37.9920   16.1390    8.0930 C.3    22  THR22       0.1794
     62  OG1      -37.9570   14.7600    8.4520 O.3    22  THR22      -0.2208
     63  CG2      -36.8210   16.8080    8.7980 C.3    22  THR22       0.0378
     64  N        -41.9400   20.4790   11.4380 N.3    29  GLY29      -0.1225
     65  CA       -40.5450   20.2680   11.7000 C.3    29  GLY29       0.1811
     66  C        -40.1830   20.9230   12.9920 C.2    29  GLY29       0.2280
     67  O        -40.8840   21.8060   13.4960 O.2    29  GLY29      -0.2866
     68  N        -49.7650   20.2800   10.9310 N.3    44  CYS44      -0.1235
     69  CA       -48.6480   20.2930   11.8660 C.3    44  CYS44       0.1677
     70  C        -48.8150   21.3470   12.9650 C.2    44  CYS44       0.2270
     71  O        -48.4780   21.1210   14.1110 O.2    44  CYS44      -0.2867
     72  CB       -47.3540   20.5780   11.1350 C.3    44  CYS44       0.0956
     73  SG       -46.9120   19.3270    9.9350 S.3    44  CYS44      -0.0801
     74  N        -51.2120   19.9590   15.2810 N.3    47  HIS47      -0.1241
     75  CA       -50.6060   18.8280   15.9810 C.3    47  HIS47       0.1621
     76  C        -49.6780   19.3180   17.0450 C.2    47  HIS47       0.2264
     77  O        -49.6370   18.7800   18.1510 O.2    47  HIS47      -0.2867
     78  CB       -49.8670   17.9640   14.9740 C.3    47  HIS47       0.0745
     79  CG       -49.1050   16.8390   15.5800 C.ar   47  HIS47       0.0817
     80  ND1      -47.7400   16.8510   15.6810 N.ar   47  HIS47      -0.2268
     81  CD2      -49.5160   15.6720   16.1180 C.ar   47  HIS47       0.1154
     82  CE1      -47.3280   15.7150   16.2070 C.ar   47  HIS47       0.1986
     83  NE2      -48.3940   14.9920   16.5130 N.ar   47  HIS47      -0.2212
     84  N        -52.8350   14.0640   13.3480 N.3    92  VAL92      -0.1245
     85  CA       -52.0300   14.7190   12.3580 C.3    92  VAL92       0.1561
     86  C        -51.8510   13.8220   11.1260 C.2    92  VAL92       0.2260
     87  O        -51.8960   14.2790    9.9830 O.2    92  VAL92      -0.2867
     88  CB       -50.6960   15.2270   12.9280 C.3    92  VAL92       0.0252
     89  CG1      -49.7400   14.1270   13.1780 C.3    92  VAL92       0.0019
     90  CG2      -50.0570   16.2460   11.9620 C.3    92  VAL92       0.0019
     91  N        -52.6870   14.9090    7.6030 N.3    96  LEU96      -0.1245
     92  CA       -51.7380   15.0200    6.5420 C.3    96  LEU96       0.1561
     93  C        -52.2070   14.2860    5.3270 C.2    96  LEU96       0.2260
     94  O        -52.0500   14.7570    4.1840 O.2    96  LEU96      -0.2867
     95  CB       -50.3660   14.5010    7.0080 C.3    96  LEU96       0.0270
     96  CG       -49.7920   15.4190    8.0590 C.3    96  LEU96       0.0019
     97  CD1      -48.5780   14.7090    8.7410 C.3    96  LEU96       0.0001
     98  CD2      -49.4340   16.8690    7.5570 C.3    96  LEU96       0.0001
@<TRIPOS>BOND
     1    56    55    1
     2    94    93    2
     3    55    53   ar
     4    55    54   ar
     5    53    51   ar
     6    93    92    1
     7    54    52   ar
     8    31    37    1
     9    31    32    1
    10    45    46    1
    11    51    50   ar
    12    40    41    2
    13    40    39    1
    14    52    50   ar
    15    37    36    1
    16    92    95    1
    17    92    91    1
    18    32    33    1
    19    32    35    1
    20    50    49    1
    21    38    33   am
    22    38    39    1
    23    33    34    2
    24    46    49    1
    25    46    47    1
    26    95    96    1
    27    39    42    1
    28    27    26    2
    29    43    42    1
    30    36    35    1
    31    98    96    1
    32    42    44    1
    33    57    47   am
    34    57    58    1
    35    47    48    2
    36    96    97    1
    37    61    62    1
    38    61    58    1
    39    61    63    1
    40    26    25    1
    41    29    28    1
    42    58    59    1
    43    59    60    2
    44    25    28    1
    45    25    24    1
    46    28    30    1
    47    73    72    1
    48    87    86    2
    49    20    19    2
    50    23    21    1
    51    68    69    1
    52    86    85    1
    53    72    69    1
    54    19    18    1
    55    64    65    1
    56    65    66    1
    57    69    70    1
    58    90    88    1
    59    18    21    1
    60    18    17    1
    61    21    22    1
    62    85    88    1
    63    85    84    1
    64    12    11    2
    65    88    89    1
    66    70    71    2
    67    66    67    2
    68    17    11   am
    69    11    10    1
    70    15    14    1
    71    14    16    1
    72    14    13    1
    73    78    79    1
    74    78    75    1
    75    10    13    1
    76    10     9    1
    77     4     3    2
    78    74    75    1
    79     8     6    1
    80    79    80   ar
    81    79    81   ar
    82    80    82   ar
    83    75    76    1
    84    81    83   ar
    85    82    83   ar
    86     3     2    1
    87     6     5    1
    88     6     7    1
    89    76    77    2
    90     5     2    1
    91     2     1    1
