@<TRIPOS>MOLECULE
tmp/2ph8A00.pdb
 209 198 0 0 0
SMALL
GASTEIGER

@<TRIPOS>ATOM
      1  N         31.7020   49.8140    9.1550 N.3    14  SER14      -0.1202
      2  CA        30.6740   49.0020    8.5030 C.3    14  SER14       0.2020
      3  C         30.7430   48.9910    6.9740 C.2    14  SER14       0.2619
      4  O         30.5240   47.9470    6.3550 O.2    14  SER14      -0.2717
      5  CB        29.2730   49.4230    8.9630 C.3    14  SER14       0.2103
      6  OG        28.9420   50.7060    8.4590 O.3    14  SER14      -0.2182
      7  N         31.0410   50.1520    6.3780 N.am   15  GLY15      -0.1942
      8  CA        31.0580   50.2900    4.9240 C.3    15  GLY15       0.2014
      9  C         32.2120   49.5960    4.2230 C.2    15  GLY15       0.2639
     10  O         32.1220   49.2770    3.0360 O.2    15  GLY15      -0.2714
     11  N         33.3040   49.3550    4.9450 N.am   16  GLN16      -0.1963
     12  CA        34.4840   48.7830    4.3040 C.3    16  GLN16       0.1733
     13  C         35.0190   47.5230    4.9750 C.2    16  GLN16       0.2616
     14  O         35.9500   46.9230    4.4550 O.2    16  GLN16      -0.2715
     15  CB        35.6000   49.8170    4.1750 C.3    16  GLN16       0.0408
     16  CG        35.2980   50.9200    3.1410 C.3    16  GLN16       0.0908
     17  CD        36.4740   51.8510    2.9290 C.2    16  GLN16       0.2608
     18  OE1       37.1470   52.2530    3.8870 O.2    16  GLN16      -0.2717
     19  NE2       36.7380   52.1970    1.6710 N.am   16  GLN16      -0.0878
     20  N         34.4250   47.1460    6.1080 N.am   17  GLY17      -0.1955
     21  CA        34.8300   45.9490    6.8410 C.3    17  GLY17       0.1869
     22  C         35.6980   46.2290    8.0610 C.2    17  GLY17       0.2309
     23  O         36.4330   47.2160    8.1070 O.2    17  GLY17      -0.2863
     24  N         40.3280   40.9520    7.1620 N.3    34  LEU34      -0.1245
     25  CA        38.8890   41.1640    7.3410 C.3    34  LEU34       0.1561
     26  C         38.2420   40.0590    8.1760 C.2    34  LEU34       0.2260
     27  O         38.4160   38.8730    7.8970 O.2    34  LEU34      -0.2867
     28  CB        38.2150   41.1890    5.9640 C.3    34  LEU34       0.0270
     29  CG        36.6930   41.3250    5.9500 C.3    34  LEU34       0.0019
     30  CD1       36.2660   42.7640    6.2550 C.3    34  LEU34       0.0001
     31  CD2       36.1360   40.8360    4.5920 C.3    34  LEU34       0.0001
     32  N         35.2220   38.0180    8.9280 N.3    36  ASP36      -0.1239
     33  CA        34.0410   37.7040    8.1070 C.3    36  ASP36       0.1674
     34  C         33.2670   36.4910    8.6000 C.2    36  ASP36       0.2266
     35  O         33.6970   35.3470    8.3950 O.2    36  ASP36      -0.2867
     36  CB        34.4750   37.4590    6.6610 C.3    36  ASP36       0.1410
     37  CG        33.2960   37.4470    5.7100 C.2    36  ASP36       0.3668
     38  OD1       32.8660   36.3660    5.3140 O.co2  36  ASP36      -0.2456
     39  OD2       32.8010   38.5340    5.3750 O.co2  36  ASP36      -0.2456
     40  N         30.4780   35.5230    7.3790 N.3    38  GLY38      -0.1210
     41  CA        29.6300   35.0230    6.2740 C.3    38  GLY38       0.1956
     42  C         30.2990   34.0600    5.3040 C.2    38  GLY38       0.2612
     43  O         29.7140   33.6970    4.2740 O.2    38  GLY38      -0.2717
     44  N         31.5240   33.6430    5.6230 N.am   39  SER39      -0.1952
     45  CA        32.2870   32.7290    4.7870 C.3    39  SER39       0.1924
     46  C         33.2630   31.9070    5.6600 C.2    39  SER39       0.2314
     47  O         33.3710   32.1540    6.8670 O.2    39  SER39      -0.2863
     48  CB        33.0720   33.5150    3.7220 C.3    39  SER39       0.2116
     49  OG        34.0830   34.2870    4.3440 O.3    39  SER39      -0.2180
     50  N         32.0790   35.3070   -3.9930 N.3    75  TYR75      -0.1227
     51  CA        31.2520   35.7940   -2.8960 C.3    75  TYR75       0.1736
     52  C         30.0040   36.4780   -3.4420 C.2    75  TYR75       0.2596
     53  O         29.8390   36.6300   -4.6650 O.2    75  TYR75      -0.2718
     54  CB        32.0320   36.7980   -2.0420 C.3    75  TYR75       0.0548
     55  CG        33.2350   36.2300   -1.3170 C.ar   75  TYR75      -0.0200
     56  CD1       33.0930   35.2340   -0.3490 C.ar   75  TYR75      -0.0009
     57  CD2       34.5090   36.7170   -1.5860 C.ar   75  TYR75      -0.0009
     58  CE1       34.2120   34.7250    0.3450 C.ar   75  TYR75       0.0417
     59  CE2       35.6360   36.2330   -0.9000 C.ar   75  TYR75       0.0417
     60  CZ        35.4780   35.2380    0.0540 C.ar   75  TYR75       0.1957
     61  OH        36.5850   34.7600    0.7030 O.3    75  TYR75      -0.2866
     62  N         29.1230   36.8910   -2.5350 N.am   76  THR76      -0.1939
     63  CA        28.0140   37.7880   -2.8920 C.3    76  THR76       0.2028
     64  C         28.5470   39.0250   -3.6150 C.2    76  THR76       0.2642
     65  O         27.9290   39.5320   -4.5620 O.2    76  THR76      -0.2714
     66  CB        27.1990   38.1560   -1.6190 C.3    76  THR76       0.1808
     67  OG1       26.4580   37.0080   -1.2010 O.3    76  THR76      -0.2208
     68  CG2       26.2350   39.3130   -1.8570 C.3    76  THR76       0.0379
     69  N         29.7190   39.4810   -3.1810 N.am   77  GLN77      -0.1976
     70  CA        30.4060   40.6180   -3.7710 C.3    77  GLN77       0.1601
     71  C         31.8440   40.2100   -4.0480 C.2    77  GLN77       0.2287
     72  O         32.6030   39.9410   -3.1080 O.2    77  GLN77      -0.2864
     73  CB        30.4030   41.7910   -2.7860 C.3    77  GLN77       0.0394
     74  CG        30.7680   43.1420   -3.3860 C.3    77  GLN77       0.0908
     75  CD        29.5740   44.0820   -3.4490 C.2    77  GLN77       0.2608
     76  OE1       29.5330   45.0800   -2.7380 O.2    77  GLN77      -0.2717
     77  NE2       28.5830   43.7510   -4.2840 N.am   77  GLN77      -0.0878
     78  N         36.9020   42.6960   -8.0580 N.3   111  LYS111     -0.1231
     79  CA        35.9260   43.4350   -7.2570 C.3   111  LYS111      0.1693
     80  C         35.8460   42.9370   -5.8090 C.2   111  LYS111      0.2592
     81  O         34.7840   42.9700   -5.1870 O.2   111  LYS111     -0.2718
     82  CB        34.5380   43.4230   -7.9150 C.3   111  LYS111      0.0285
     83  CG        34.5070   44.0640   -9.3110 C.3   111  LYS111      0.0035
     84  CD        33.1190   43.9280   -9.8970 C.3   111  LYS111      0.0206
     85  CE        32.9970   44.6430  -11.2270 C.3   111  LYS111      0.1093
     86  NZ        31.5930   44.5500  -11.7360 N.3   111  LYS111     -0.1314
     87  N         36.9920   42.4980   -5.2850 N.am  112  PHE112     -0.1976
     88  CA        37.0480   41.9600   -3.9210 C.3   112  PHE112      0.1639
     89  C         37.7160   42.9430   -2.9510 C.2   112  PHE112      0.2290
     90  O         37.0660   43.4460   -2.0290 O.2   112  PHE112     -0.2864
     91  CB        37.7490   40.5980   -3.8930 C.3   112  PHE112      0.0560
     92  CG        37.8800   40.0330   -2.5090 C.ar  112  PHE112     -0.0200
     93  CD1       36.7460   39.8100   -1.7340 C.ar  112  PHE112     -0.0042
     94  CD2       39.1340   39.7510   -1.9730 C.ar  112  PHE112     -0.0042
     95  CE1       36.8550   39.2930   -0.4180 C.ar  112  PHE112     -0.0003
     96  CE2       39.2470   39.2370   -0.6630 C.ar  112  PHE112     -0.0003
     97  CZ        38.1140   39.0110    0.1000 C.ar  112  PHE112     -0.0000
     98  N         39.1310   46.3920   -1.5130 N.3   114  ILE114     -0.1245
     99  CA        38.4860   47.7030   -1.5210 C.3   114  ILE114      0.1561
    100  C         39.5420   48.7690   -1.2710 C.2   114  ILE114      0.2260
    101  O         40.2650   48.7120   -0.2750 O.2   114  ILE114     -0.2867
    102  CB        37.3590   47.7850   -0.4540 C.3   114  ILE114      0.0252
    103  CG1       36.2490   46.7830   -0.7890 C.3   114  ILE114      0.0019
    104  CG2       36.7990   49.2080   -0.3500 C.3   114  ILE114      0.0019
    105  CD1       35.1360   46.6860    0.2690 C.3   114  ILE114      0.0001
    106  N         42.6560   46.4360    4.5910 N.3   119  TRP119     -0.1241
    107  CA        42.8290   44.9860    4.7680 C.3   119  TRP119      0.1605
    108  C         43.3290   44.2880    3.5050 C.2   119  TRP119      0.2264
    109  O         43.0760   44.7370    2.3740 O.2   119  TRP119     -0.2867
    110  CB        41.5940   44.2910    5.3730 C.3   119  TRP119      0.0550
    111  CG        40.2740   44.5640    4.7010 C.ar  119  TRP119      0.0003
    112  CD1       39.3560   45.5180    5.0620 C.ar  119  TRP119      0.0946
    113  CD2       39.7120   43.8700    3.5790 C.ar  119  TRP119      0.0152
    114  NE1       38.2640   45.4640    4.2220 N.ar  119  TRP119     -0.2442
    115  CE2       38.4490   44.4590    3.3110 C.ar  119  TRP119      0.0810
    116  CE3       40.1480   42.8060    2.7700 C.ar  119  TRP119      0.0012
    117  CZ2       37.6220   44.0300    2.2600 C.ar  119  TRP119      0.0191
    118  CZ3       39.3210   42.3790    1.7230 C.ar  119  TRP119      0.0001
    119  CH2       38.0720   42.9910    1.4850 C.ar  119  TRP119      0.0015
    120  N         41.1720   37.8370    4.2110 N.3   122  ILE122     -0.1245
    121  CA        39.8690   37.5900    4.8220 C.3   122  ILE122      0.1561
    122  C         39.9300   36.3730    5.7270 C.2   122  ILE122      0.2260
    123  O         40.5400   35.3630    5.3700 O.2   122  ILE122     -0.2867
    124  CB        38.7650   37.4030    3.7300 C.3   122  ILE122      0.0252
    125  CG1       37.4060   37.1010    4.3820 C.3   122  ILE122      0.0019
    126  CG2       39.1590   36.3400    2.7040 C.3   122  ILE122      0.0019
    127  CD1       36.2380   37.1550    3.4060 C.3   122  ILE122      0.0001
    128  N         26.2360   38.2660    9.3560 N.3   218  ASP218     -0.1225
    129  CA        27.4540   38.3960    8.5580 C.3   218  ASP218      0.1805
    130  C         28.1650   39.7130    8.8250 C.2   218  ASP218      0.2598
    131  O         27.7580   40.7530    8.3200 O.2   218  ASP218     -0.2718
    132  CB        27.1340   38.2180    7.0630 C.3   218  ASP218      0.1424
    133  CG        28.3800   38.3170    6.1580 C.2   218  ASP218      0.3668
    134  OD1       29.5150   38.3280    6.6780 O.co2 218  ASP218     -0.2456
    135  OD2       28.2050   38.4050    4.9160 O.co2 218  ASP218     -0.2456
    136  N         29.2550   39.6520    9.5910 N.am  219  SER219     -0.1938
    137  CA        30.0770   40.8360    9.9000 C.3   219  SER219      0.2055
    138  C         30.7330   41.4610    8.6620 C.2   219  SER219      0.2644
    139  O         31.1550   42.6380    8.6950 O.2   219  SER219     -0.2714
    140  CB        31.1710   40.4520   10.9030 C.3   219  SER219      0.2130
    141  OG        32.0100   39.4390   10.3550 O.3   219  SER219     -0.2179
    142  N         30.8040   40.6770    7.5850 N.am  220  GLY220     -0.1939
    143  CA        31.3840   41.1050    6.2980 C.3   220  GLY220      0.2014
    144  C         30.3740   41.6200    5.2770 C.2   220  GLY220      0.2640
    145  O         30.6960   41.7230    4.0920 O.2   220  GLY220     -0.2714
    146  N         29.1580   41.9320    5.7400 N.am  221  THR221     -0.1936
    147  CA        28.1330   42.6210    4.9210 C.3   221  THR221      0.2028
    148  C         27.7990   43.9300    5.6540 C.2   221  THR221      0.2643
    149  O         27.6350   43.9300    6.8730 O.2   221  THR221     -0.2714
    150  CB        26.8500   41.7480    4.7730 C.3   221  THR221      0.1808
    151  OG1       27.0770   40.6740    3.8540 O.3   221  THR221     -0.2208
    152  CG2       25.6700   42.5830    4.2570 C.3   221  THR221      0.0379
    153  N         27.7000   45.0510    4.9370 N.am  222  THR222     -0.1936
    154  CA        27.4080   46.3320    5.5890 C.3   222  THR222      0.2028
    155  C         25.9690   46.4090    6.1000 C.2   222  THR222      0.2642
    156  O         25.7430   46.6960    7.2720 O.2   222  THR222     -0.2714
    157  CB        27.6650   47.5210    4.6200 C.3   222  THR222      0.1808
    158  OG1       28.9950   47.4310    4.1150 O.3   222  THR222     -0.2208
    159  CG2       27.4520   48.8700    5.3120 C.3   222  THR222      0.0379
    160  N         25.0120   46.1160    5.2170 N.am  223  ASN223     -0.1971
    161  CA        23.6070   46.4220    5.4540 C.3   223  ASN223      0.1688
    162  C         22.8150   45.3750    6.2230 C.2   223  ASN223      0.2292
    163  O         23.2840   44.2440    6.4260 O.2   223  ASN223     -0.2864
    164  CB        22.9220   46.6520    4.0990 C.3   223  ASN223      0.1181
    165  CG        23.3190   47.9830    3.4620 C.2   223  ASN223      0.2629
    166  OD1       24.1700   48.6990    3.9830 O.2   223  ASN223     -0.2716
    167  ND2       22.6930   48.3170    2.3290 N.am  223  ASN223     -0.0877
    168  N         20.1350   43.3230    4.9690 N.3   225  ARG225     -0.1245
    169  CA        19.6100   42.9440    3.6570 C.3   225  ARG225      0.1563
    170  C         18.3860   42.0640    3.8790 C.2   225  ARG225      0.2260
    171  O         18.4040   41.1760    4.7280 O.2   225  ARG225     -0.2867
    172  CB        20.6740   42.2310    2.8220 C.3   225  ARG225      0.0307
    173  CG        21.9890   43.0430    2.7160 C.3   225  ARG225      0.0489
    174  CD        22.9900   42.3680    1.7670 C.3   225  ARG225      0.2205
    175  NE        22.4900   42.3720    0.3880 N.pl3 225  ARG225     -0.0865
    176  CZ        22.6350   41.3710   -0.4810 C.cat 225  ARG225      0.5346
    177  NH1       23.2680   40.2550   -0.1330 N.pl3 225  ARG225      0.1354
    178  NH2       22.1260   41.4790   -1.7080 N.pl3 225  ARG225      0.1354
    179  N         23.6770   55.1220    7.4250 N.3   297  ARG297     -0.1245
    180  CA        25.1340   54.9710    7.4790 C.3   297  ARG297      0.1563
    181  C         25.8520   56.2110    6.9120 C.2   297  ARG297      0.2260
    182  O         25.6100   56.5870    5.7690 O.2   297  ARG297     -0.2867
    183  CB        25.5250   53.7110    6.6950 C.3   297  ARG297      0.0307
    184  CG        27.0150   53.4260    6.5860 C.3   297  ARG297      0.0489
    185  CD        27.2930   52.6290    5.3050 C.3   297  ARG297      0.2205
    186  NE        28.5000   53.1130    4.6310 N.pl3 297  ARG297     -0.0865
    187  CZ        28.6910   53.0790    3.3190 C.cat 297  ARG297      0.5346
    188  NH1       27.7570   52.5970    2.5120 N.pl3 297  ARG297      0.1354
    189  NH2       29.8240   53.5370    2.8100 N.pl3 297  ARG297      0.1354
    190  N         23.6340   57.2130    3.8190 N.3   306  LYS306     -0.1245
    191  CA        23.0410   56.2490    2.9150 C.3   306  LYS306      0.1561
    192  C         22.1030   55.3590    3.7350 C.2   306  LYS306      0.2260
    193  O         22.4250   54.9890    4.8660 O.2   306  LYS306     -0.2867
    194  CB        24.1360   55.4070    2.2560 C.3   306  LYS306      0.0271
    195  CG        23.6410   54.4470    1.1780 C.3   306  LYS306      0.0035
    196  CD        24.7720   53.9950    0.2600 C.3   306  LYS306      0.0206
    197  CE        24.2150   53.2300   -0.9240 C.3   306  LYS306      0.1093
    198  NZ        25.1860   53.1670   -2.0470 N.3   306  LYS306     -0.1314
    199  N         18.6340   47.1360    2.5500 N.3   310  SER310     -0.1217
    200  CA        18.5880   46.8760    1.1150 C.3   310  SER310      0.1889
    201  C         18.0350   45.4980    0.7620 C.2   310  SER310      0.2288
    202  O         17.7730   44.6640    1.6380 O.2   310  SER310     -0.2866
    203  CB        19.9750   47.0830    0.5060 C.3   310  SER310      0.2089
    204  OG        20.9180   46.1870    1.0690 O.3   310  SER310     -0.2183
    205  N         26.7860   44.4050    9.3720 N.3   320  ALA320     -0.1245
    206  CA        27.5060   45.1940   10.3620 C.3   320  ALA320      0.1562
    207  C         26.6660   46.2830   11.0020 C.2   320  ALA320      0.2260
    208  O         26.8310   46.5610   12.1900 O.2   320  ALA320     -0.2867
    209  CB        28.7860   45.7850    9.7730 C.3   320  ALA320      0.0290
@<TRIPOS>BOND
     1    86    85    1
     2    85    84    1
     3    84    83    1
     4    83    82    1
     5    78    79    1
     6    82    79    1
     7    79    80    1
     8    80    87   am
     9    80    81    2
    10    87    88    1
    11    53    52    2
    12    65    64    2
    13    77    75   am
    14    71    70    1
    15    71    72    2
    16    50    51    1
    17    88    91    1
    18    88    89    1
    19    91    92    1
    20    70    69    1
    21    70    73    1
    22    64    69   am
    23    64    63    1
    24    75    74    1
    25    75    76    2
    26    52    51    1
    27    52    62   am
    28    74    73    1
    29    89    90    2
    30    51    54    1
    31    63    62    1
    32    63    66    1
    33    92    94   ar
    34    92    93   ar
    35   198   197    1
    36    54    55    1
    37    94    96   ar
    38    68    66    1
    39    93    95   ar
    40   178   176    1
    41    66    67    1
    42    57    55   ar
    43    57    59   ar
    44    99    98    1
    45    99   100    1
    46    99   102    1
    47    55    56   ar
    48   100   101    2
    49   197   196    1
    50    59    60   ar
    51   103   102    1
    52   103   105    1
    53    96    97   ar
    54   176   177    1
    55   176   175    2
    56   102   104    1
    57    95    97   ar
    58    56    58   ar
    59    60    58   ar
    60    60    61    1
    61   196   195    1
    62   175   174    1
    63   203   204    1
    64   203   200    1
    65   201   200    1
    66   201   202    2
    67   200   199    1
    68   195   194    1
    69   119   118   ar
    70   119   117   ar
    71    19    17   am
    72   118   116   ar
    73   174   173    1
    74   194   191    1
    75   117   115   ar
    76   167   165   am
    77   109   108    2
    78   188   187    1
    79   126   124    1
    80   173   172    1
    81   116   113   ar
    82   189   187    1
    83   172   169    1
    84   191   192    1
    85   191   190    1
    86    17    16    1
    87    17    18    2
    88    10     9    2
    89    16    15    1
    90   115   113   ar
    91   115   114   ar
    92   187   186    2
    93   127   125    1
    94   165   166    2
    95   165   164    1
    96   108   107    1
    97   113   111   ar
    98   169   170    1
    99   169   168    1
   100    48    49    1
   101    48    45    1
   102   124   125    1
   103   124   121    1
   104   192   193    2
   105   151   150    1
   106   170   171    2
   107   145   144    2
   108   164   161    1
   109   158   157    1
   110    15    12    1
   111   120   121    1
   112   114   112   ar
   113     9     8    1
   114     9    11   am
   115   152   150    1
   116    43    42    2
   117    12    11    1
   118    12    13    1
   119    14    13    2
   120   106   107    1
   121    31    29    1
   122   157   159    1
   123   157   154    1
   124   186   185    1
   125   111   112   ar
   126   111   110    1
   127   107   110    1
   128   150   147    1
   129    45    44    1
   130    45    46    1
   131   121   122    1
   132   135   133   ar
   133   147   148    1
   134   147   146    1
   135     8     7    1
   136   153   154    1
   137   153   148   am
   138    13    20   am
   139   160   161    1
   140   160   155   am
   141   144   146   am
   142   144   143    1
   143    42    44   am
   144    42    41    1
   145   185   184    1
   146    38    37   ar
   147   123   122    2
   148    39    37   ar
   149   161   162    1
   150   154   155    1
   151   148   149    2
   152    46    47    2
   153    37    36    1
   154   182   181    2
   155    29    28    1
   156    29    30    1
   157    28    25    1
   158   155   156    2
   159    20    21    1
   160   133   134   ar
   161   133   132    1
   162   162   163    2
   163    41    40    1
   164   143   142    1
   165     4     3    2
   166     7     3   am
   167   184   183    1
   168    36    33    1
   169   183   180    1
   170    21    22    1
   171   181   180    1
   172     3     2    1
   173   132   129    1
   174    24    25    1
   175    25    26    1
   176   179   180    1
   177   142   138   am
   178    27    26    2
   179    22    23    2
   180    33    34    1
   181    33    32    1
   182   131   130    2
   183    35    34    2
   184     6     5    1
   185     2     5    1
   186     2     1    1
   187   129   130    1
   188   129   128    1
   189   138   139    2
   190   138   137    1
   191   130   136   am
   192   205   206    1
   193   136   137    1
   194   209   206    1
   195   137   140    1
   196   141   140    1
   197   206   207    1
   198   207   208    2
