@<TRIPOS>MOLECULE
tmp/2phbA00.pdb
 194 191 0 0 0
SMALL
GASTEIGER

@<TRIPOS>ATOM
      1  N         13.3580   11.2470   14.1490 N.3    42  HIS42      -0.1241
      2  CA        11.8950   11.2810   14.1870 C.3    42  HIS42       0.1621
      3  C         11.3360   12.6160   14.6710 C.2    42  HIS42       0.2264
      4  O         10.1260   12.8560   14.6120 O.2    42  HIS42      -0.2867
      5  CB        11.3270   10.1310   15.0450 C.3    42  HIS42       0.0745
      6  CG        11.3320   10.3940   16.5200 C.ar   42  HIS42       0.0817
      7  ND1       12.3080    9.9080   17.3620 N.ar   42  HIS42      -0.2268
      8  CD2       10.4800   11.0990   17.3030 C.ar   42  HIS42       0.1154
      9  CE1       12.0610   10.3030   18.5980 C.ar   42  HIS42       0.1986
     10  NE2       10.9570   11.0280   18.5890 N.ar   42  HIS42      -0.2212
     11  N         10.4690    5.1520   10.5010 N.3    82  LYS82      -0.1231
     12  CA         9.5490    5.0600   11.6290 C.3    82  LYS82       0.1693
     13  C          9.0820    3.6330   11.9260 C.2    82  LYS82       0.2592
     14  O          8.6580    3.3410   13.0480 O.2    82  LYS82      -0.2718
     15  CB         8.3280    5.9570   11.3830 C.3    82  LYS82       0.0285
     16  CG         8.6490    7.4460   11.3490 C.3    82  LYS82       0.0035
     17  CD         7.4810    8.2630   10.8150 C.3    82  LYS82       0.0206
     18  CE         7.2200    7.9760    9.3390 C.3    82  LYS82       0.1093
     19  NZ         6.0880    8.7910    8.8250 N.3    82  LYS82      -0.1314
     20  N          9.1610    2.7440   10.9390 N.am   83  GLU83      -0.1966
     21  CA         8.7210    1.3660   11.1420 C.3    83  GLU83       0.1733
     22  C          9.5480    0.6010   12.1720 C.2    83  GLU83       0.2617
     23  O          9.0560   -0.3440   12.7920 O.2    83  GLU83      -0.2715
     24  CB         8.7080    0.5900    9.8160 C.3    83  GLU83       0.0429
     25  CG         9.7570    1.0280    8.8050 C.3    83  GLU83       0.1163
     26  CD         9.2730    2.1820    7.9430 C.2    83  GLU83       0.3649
     27  OE1        8.2880    1.9880    7.1930 O.co2  83  GLU83      -0.2457
     28  OE2        9.8680    3.2790    8.0180 O.co2  83  GLU83      -0.2457
     29  N         10.8000    1.0030   12.3550 N.am   84  THR84      -0.1937
     30  CA        11.6650    0.3370   13.3190 C.3    84  THR84       0.2028
     31  C         12.2630    1.3370   14.2960 C.2    84  THR84       0.2642
     32  O         12.6610    0.9800   15.4010 O.2    84  THR84      -0.2714
     33  CB        12.8050   -0.4020   12.6060 C.3    84  THR84       0.1808
     34  OG1       13.5660    0.5340   11.8320 O.3    84  THR84      -0.2208
     35  CG2       12.2390   -1.4840   11.6820 C.3    84  THR84       0.0379
     36  N         12.2940    2.5970   13.8820 N.am   85  TYR85      -0.1973
     37  CA        12.8580    3.6730   14.6840 C.3    85  TYR85       0.1639
     38  C         14.3520    3.4570   14.8450 C.2    85  TYR85       0.2290
     39  O         14.9730    3.9600   15.7750 O.2    85  TYR85      -0.2864
     40  CB        12.1850    3.7620   16.0540 C.3    85  TYR85       0.0560
     41  CG        11.1430    4.8610   16.1280 C.ar   85  TYR85      -0.0198
     42  CD1        9.9340    4.7530   15.4450 C.ar   85  TYR85      -0.0009
     43  CD2       11.3740    6.0170   16.8770 C.ar   85  TYR85      -0.0009
     44  CE1        8.9850    5.7660   15.5060 C.ar   85  TYR85       0.0417
     45  CE2       10.4320    7.0280   16.9440 C.ar   85  TYR85       0.0417
     46  CZ         9.2410    6.8980   16.2590 C.ar   85  TYR85       0.1957
     47  OH         8.2980    7.8960   16.3400 O.3    85  TYR85      -0.2866
     48  N          2.8750   10.4220   31.6260 N.3   135  GLU135     -0.1245
     49  CA         2.5230    9.8800   30.3210 C.3   135  GLU135      0.1567
     50  C          1.4280   10.7090   29.6630 C.2   135  GLU135      0.2260
     51  O          1.5360   11.0690   28.4920 O.2   135  GLU135     -0.2867
     52  CB         2.0770    8.4170   30.4340 C.3   135  GLU135      0.0388
     53  CG         2.2870    7.6250   29.1420 C.3   135  GLU135      0.1160
     54  CD         1.9290    6.1520   29.2670 C.2   135  GLU135      0.3649
     55  OE1        2.3160    5.5240   30.2790 O.co2 135  GLU135     -0.2457
     56  OE2        1.2730    5.6200   28.3420 O.co2 135  GLU135     -0.2457
     57  N          9.0260   -4.4320   20.9360 N.3   162  PHE162     -0.1227
     58  CA         9.6030   -4.0400   19.6610 C.3   162  PHE162      0.1736
     59  C         11.0560   -4.4900   19.5750 C.2   162  PHE162      0.2595
     60  O         11.6690   -4.8410   20.5890 O.2   162  PHE162     -0.2718
     61  CB         9.5260   -2.5280   19.5190 C.3   162  PHE162      0.0547
     62  CG         8.1370   -1.9870   19.6520 C.ar  162  PHE162     -0.0202
     63  CD1        7.2610   -2.0210   18.5750 C.ar  162  PHE162     -0.0042
     64  CD2        7.6940   -1.4780   20.8640 C.ar  162  PHE162     -0.0042
     65  CE1        5.9780   -1.5620   18.7050 C.ar  162  PHE162     -0.0003
     66  CE2        6.4060   -1.0150   21.0000 C.ar  162  PHE162     -0.0003
     67  CZ         5.5450   -1.0570   19.9200 C.ar  162  PHE162     -0.0000
     68  N         11.5970   -4.4770   18.3580 N.am  163  ILE163     -0.1980
     69  CA        12.9760   -4.8840   18.1220 C.3   163  ILE163      0.1595
     70  C         13.9810   -3.8450   18.6350 C.2   163  ILE163      0.2287
     71  O         13.8750   -2.6610   18.3070 O.2   163  ILE163     -0.2864
     72  CB        13.2530   -5.0840   16.6190 C.3   163  ILE163      0.0276
     73  CG1       12.1770   -5.9750   15.9870 C.3   163  ILE163      0.0022
     74  CG2       14.6490   -5.6910   16.4380 C.3   163  ILE163      0.0022
     75  CD1       12.2860   -7.4470   16.3380 C.3   163  ILE163      0.0001
     76  N         11.5370    8.2590   34.3220 N.3   179  ASP179     -0.1225
     77  CA        11.9370    7.9560   32.9590 C.3   179  ASP179      0.1805
     78  C         11.7630    9.2330   32.1550 C.2   179  ASP179      0.2598
     79  O         11.2670   10.2320   32.6760 O.2   179  ASP179     -0.2718
     80  CB        11.0280    6.8510   32.4040 C.3   179  ASP179      0.1424
     81  CG        11.4770    6.3350   31.0550 C.2   179  ASP179      0.3668
     82  OD1       12.6440    6.5920   30.6840 O.co2 179  ASP179     -0.2456
     83  OD2       10.6630    5.6560   30.3770 O.co2 179  ASP179     -0.2456
     84  N         12.2040    9.2110   30.9000 N.am  180  ALA180     -0.1966
     85  CA        12.0330   10.3580   30.0240 C.3   180  ALA180      0.1728
     86  C         10.6160   10.1590   29.5100 C.2   180  ALA180      0.2616
     87  O          9.9400    9.2100   29.9180 O.2   180  ALA180     -0.2715
     88  CB        13.0290   10.3180   28.8660 C.3   180  ALA180      0.0334
     89  N         10.1690   11.0330   28.6170 N.am  181  CYS181     -0.1954
     90  CA         8.8190   10.9300   28.0810 C.3   181  CYS181      0.1843
     91  C          8.7310   11.6520   26.7460 C.2   181  CYS181      0.2625
     92  O          9.7440   12.0160   26.1580 O.2   181  CYS181     -0.2714
     93  CB         7.8180   11.5430   29.0680 C.3   181  CYS181      0.0997
     94  SG         6.0740   11.2610   28.6720 S.3   181  CYS181     -0.0797
     95  N          7.5110   11.8460   26.2660 N.am  182  GLN182     -0.1977
     96  CA         7.3060   12.5450   25.0150 C.3   182  GLN182      0.1601
     97  C          7.7630   13.9700   25.2790 C.2   182  GLN182      0.2287
     98  O          7.5540   14.5000   26.3710 O.2   182  GLN182     -0.2864
     99  CB         5.8220   12.5240   24.6430 C.3   182  GLN182      0.0394
    100  CG         5.5400   12.7770   23.1700 C.3   182  GLN182      0.0908
    101  CD         4.0710   12.5940   22.8230 C.2   182  GLN182      0.2608
    102  OE1        3.4430   11.6020   23.2160 O.2   182  GLN182     -0.2717
    103  NE2        3.5160   13.5480   22.0750 N.am  182  GLN182     -0.0878
    104  N         12.2680   13.6730   23.6070 N.3   185  SER185     -0.1217
    105  CA        12.8540   13.0820   22.4080 C.3   185  SER185      0.1889
    106  C         13.8690   14.0210   21.7630 C.2   185  SER185      0.2288
    107  O         13.6630   15.2320   21.7290 O.2   185  SER185     -0.2866
    108  CB        11.7490   12.7570   21.3960 C.3   185  SER185      0.2089
    109  OG        10.8520   11.7970   21.9260 O.3   185  SER185     -0.2183
    110  N         17.6900   10.8000   23.3200 N.3   203  VAL203     -0.1231
    111  CA        16.4000   10.3010   23.7850 C.3   203  VAL203      0.1692
    112  C         15.6070    9.9050   22.5520 C.2   203  VAL203      0.2593
    113  O         15.3730   10.7310   21.6720 O.2   203  VAL203     -0.2718
    114  CB        15.6130   11.3650   24.5790 C.3   203  VAL203      0.0266
    115  CG1       14.3220   10.7600   25.1060 C.3   203  VAL203      0.0020
    116  CG2       16.4500   11.8800   25.7280 C.3   203  VAL203      0.0020
    117  N         15.1960    8.6440   22.4860 N.am  204  SER204     -0.1938
    118  CA        14.4660    8.1760   21.3180 C.3   204  SER204      0.2055
    119  C         12.9990    7.8020   21.5290 C.2   204  SER204      0.2643
    120  O         12.1070    8.5180   21.0770 O.2   204  SER204     -0.2714
    121  CB        15.2120    7.0010   20.6840 C.3   204  SER204      0.2130
    122  OG        14.5810    6.6040   19.4830 O.3   204  SER204     -0.2179
    123  N         12.7390    6.6820   22.1940 N.am  205  TRP205     -0.1959
    124  CA        11.3520    6.2710   22.4120 C.3   205  TRP205      0.1771
    125  C         11.0960    5.3850   23.6320 C.2   205  TRP205      0.2620
    126  O         12.0020    5.0410   24.3870 O.2   205  TRP205     -0.2715
    127  CB        10.8100    5.5490   21.1710 C.3   205  TRP205      0.0590
    128  CG        11.6280    4.3480   20.7560 C.ar  205  TRP205      0.0006
    129  CD1       12.7760    4.3530   20.0180 C.ar  205  TRP205      0.0946
    130  CD2       11.3800    2.9790   21.1020 C.ar  205  TRP205      0.0152
    131  NE1       13.2610    3.0720   19.8840 N.ar  205  TRP205     -0.2442
    132  CE2       12.4230    2.2100   20.5410 C.ar  205  TRP205      0.0810
    133  CE3       10.3760    2.3290   21.8310 C.ar  205  TRP205      0.0012
    134  CZ2       12.4950    0.8220   20.6860 C.ar  205  TRP205      0.0191
    135  CZ3       10.4470    0.9480   21.9740 C.ar  205  TRP205      0.0001
    136  CH2       11.5020    0.2100   21.4020 C.ar  205  TRP205      0.0015
    137  N          9.8300    5.0240   23.7970 N.am  206  GLY206     -0.1940
    138  CA         9.4140    4.1730   24.8910 C.3   206  GLY206      0.2014
    139  C          7.9390    3.8570   24.7660 C.2   206  GLY206      0.2639
    140  O          7.1830    4.6340   24.1850 O.2   206  GLY206     -0.2714
    141  N          7.5410    2.7020   25.2850 N.am  207  GLU207     -0.1963
    142  CA         6.1450    2.2830   25.2660 C.3   207  GLU207      0.1733
    143  C          5.5320    2.9420   26.5010 C.2   207  GLU207      0.2617
    144  O          5.4580    2.3440   27.5700 O.2   207  GLU207     -0.2715
    145  CB         6.0450    0.7530   25.3530 C.3   207  GLU207      0.0429
    146  CG         6.6780    0.0390   24.1590 C.3   207  GLU207      0.1163
    147  CD         6.7700   -1.4740   24.3310 C.2   207  GLU207      0.3649
    148  OE1        5.7120   -2.1340   24.4300 O.co2 207  GLU207     -0.2457
    149  OE2        7.9050   -2.0020   24.3690 O.co2 207  GLU207     -0.2457
    150  N          5.1070    4.1870   26.3410 N.am  208  GLY208     -0.1940
    151  CA         4.5460    4.9150   27.4600 C.3   208  GLY208      0.2014
    152  C          5.7110    5.5890   28.1540 C.2   208  GLY208      0.2639
    153  O          6.7160    5.8950   27.5090 O.2   208  GLY208     -0.2714
    154  N          5.5920    5.8180   29.4570 N.am  209  CYS209     -0.1967
    155  CA         6.6670    6.4500   30.2110 C.3   209  CYS209      0.1712
    156  C          6.6210    5.9950   31.6510 C.2   209  CYS209      0.2296
    157  O          5.5680    6.0090   32.2780 O.2   209  CYS209     -0.2864
    158  CB         6.5380    7.9710   30.1610 C.3   209  CYS209      0.0983
    159  SG         6.3370    8.6230   28.5010 S.3   209  CYS209     -0.0798
    160  N          6.5840    3.2510   32.7190 N.3   211  ARG211     -0.1245
    161  CA         5.7840    2.0380   32.8470 C.3   211  ARG211      0.1563
    162  C          6.5790    0.9120   33.5050 C.2   211  ARG211      0.2260
    163  O          7.7450    0.6860   33.1780 O.2   211  ARG211     -0.2867
    164  CB         5.2970    1.5560   31.4780 C.3   211  ARG211      0.0307
    165  CG         4.1780    2.3740   30.8740 C.3   211  ARG211      0.0489
    166  CD         3.6160    1.6800   29.6320 C.3   211  ARG211      0.2205
    167  NE         2.6410    2.5150   28.9300 N.pl3 211  ARG211     -0.0865
    168  CZ         2.2510    2.3210   27.6730 C.cat 211  ARG211      0.5346
    169  NH1        2.7490    1.3110   26.9670 N.pl3 211  ARG211      0.1354
    170  NH2        1.3780    3.1540   27.1120 N.pl3 211  ARG211      0.1354
    171  N         13.5000    3.1630   28.9580 N.3   216  GLY216     -0.1210
    172  CA        13.5880    4.2250   27.9810 C.3   216  GLY216      0.1956
    173  C         14.5410    3.7150   26.9170 C.2   216  GLY216      0.2612
    174  O         15.5270    3.0580   27.2420 O.2   216  GLY216     -0.2717
    175  N         14.2490    3.9880   25.6500 N.am  217  ILE217     -0.1965
    176  CA        15.1130    3.5300   24.5670 C.3   217  ILE217      0.1727
    177  C         15.8800    4.7140   23.9730 C.2   217  ILE217      0.2616
    178  O         15.2840    5.6670   23.4720 O.2   217  ILE217     -0.2715
    179  CB        14.3030    2.8390   23.4380 C.3   217  ILE217      0.0290
    180  CG1       13.2560    1.8930   24.0300 C.3   217  ILE217      0.0022
    181  CG2       15.2490    2.0480   22.5400 C.3   217  ILE217      0.0023
    182  CD1       13.8340    0.8050   24.8990 C.3   217  ILE217      0.0001
    183  N         17.2070    4.6380   24.0320 N.am  218  TYR218     -0.1974
    184  CA        18.0580    5.6970   23.5170 C.3   218  TYR218      0.1639
    185  C         18.9150    5.2530   22.3290 C.2   218  TYR218      0.2290
    186  O         19.2900    4.0940   22.2280 O.2   218  TYR218     -0.2864
    187  CB        18.9760    6.2110   24.6290 C.3   218  TYR218      0.0560
    188  CG        18.2550    6.7960   25.8300 C.ar  218  TYR218     -0.0198
    189  CD1       17.5760    5.9830   26.7370 C.ar  218  TYR218     -0.0009
    190  CD2       18.2820    8.1600   26.0730 C.ar  218  TYR218     -0.0009
    191  CE1       16.9490    6.5260   27.8570 C.ar  218  TYR218      0.0417
    192  CE2       17.6670    8.7070   27.1780 C.ar  218  TYR218      0.0417
    193  CZ        17.0020    7.8950   28.0690 C.ar  218  TYR218      0.1957
    194  OH        16.4020    8.4690   29.1660 O.3   218  TYR218     -0.2866
@<TRIPOS>BOND
     1    27    26   ar
     2    26    28   ar
     3    26    25    1
     4    25    24    1
     5    19    18    1
     6    18    17    1
     7    24    21    1
     8    11    12    1
     9    17    16    1
    10    20    21    1
    11    20    13   am
    12    21    22    1
    13    16    15    1
    14    15    12    1
    15    12    13    1
    16    35    33    1
    17    34    33    1
    18    13    14    2
    19    22    29   am
    20    22    23    2
    21    29    30    1
    22    33    30    1
    23    30    31    1
    24    36    31   am
    25    36    37    1
    26     1     2    1
    27     2     3    1
    28     2     5    1
    29    31    32    2
    30     4     3    2
    31    37    38    1
    32    37    40    1
    33    38    39    2
    34     5     6    1
    35    42    44   ar
    36    42    41   ar
    37    44    46   ar
    38    73    75    1
    39    73    72    1
    40    40    41    1
    41    41    43   ar
    42    46    47    1
    43    46    45   ar
    44    74    72    1
    45     6     8   ar
    46     6     7   ar
    47    72    69    1
    48    43    45   ar
    49     8    10   ar
    50     7     9   ar
    51    69    68    1
    52    69    70    1
    53    71    70    2
    54    68    59   am
    55    63    65   ar
    56    63    62   ar
    57    10     9   ar
    58    65    67   ar
    59   122   121    1
    60    61    62    1
    61    61    58    1
    62    59    58    1
    63    59    60    2
    64    62    64   ar
    65    58    57    1
    66   131   129   ar
    67   131   132   ar
    68    67    66   ar
    69   129   128   ar
    70   132   134   ar
    71   132   130   ar
    72   121   118    1
    73   134   136   ar
    74   128   130   ar
    75   128   127    1
    76    64    66   ar
    77   120   119    2
    78   130   133   ar
    79   127   124    1
    80   118   119    1
    81   118   117    1
    82   108   109    1
    83   108   105    1
    84   136   135   ar
    85   119   123   am
    86   113   112    2
    87   107   106    2
    88   106   105    1
    89   133   135   ar
    90   103   101   am
    91   123   124    1
    92   186   185    2
    93   185   184    1
    94   105   104    1
    95   124   125    1
    96   117   112   am
    97   181   179    1
    98   112   111    1
    99   101   100    1
   100   101   102    2
   101   100    99    1
   102   110   111    1
   103   179   180    1
   104   179   176    1
   105   178   177    2
   106   184   183    1
   107   184   187    1
   108   125   137   am
   109   125   126    2
   110   111   114    1
   111   137   138    1
   112   177   183   am
   113   177   176    1
   114   180   182    1
   115   146   147    1
   116   146   145    1
   117   140   139    2
   118   147   149   ar
   119   147   148   ar
   120   176   175    1
   121   114   115    1
   122   114   116    1
   123   187   188    1
   124    99    96    1
   125   139   138    1
   126   139   141   am
   127    96    97    1
   128    96    95    1
   129   142   141    1
   130   142   145    1
   131   142   143    1
   132    97    98    2
   133   175   173   am
   134   188   190   ar
   135   188   189   ar
   136   190   192   ar
   137    92    91    2
   138    95    91   am
   139   150   143   am
   140   150   151    1
   141   143   144    2
   142   189   191   ar
   143    91    90    1
   144   173   174    2
   145   173   172    1
   146   169   168    1
   147   170   168    1
   148   192   193   ar
   149   151   152    1
   150   153   152    2
   151   168   167    2
   152   191   193   ar
   153   172   171    1
   154   193   194    1
   155    90    89    1
   156    90    93    1
   157   152   154   am
   158    56    54   ar
   159    51    50    2
   160   159   158    1
   161    89    86   am
   162    94    93    1
   163    88    85    1
   164   167   166    1
   165    53    54    1
   166    53    52    1
   167    54    55   ar
   168   154   155    1
   169    86    87    2
   170    86    85    1
   171   166   165    1
   172    50    49    1
   173    85    84    1
   174   158   155    1
   175   155   156    1
   176    49    52    1
   177    49    48    1
   178    83    81   ar
   179    82    81   ar
   180   165   164    1
   181    84    78   am
   182    81    80    1
   183   164   161    1
   184   156   157    2
   185    78    79    2
   186    78    77    1
   187    80    77    1
   188   160   161    1
   189   161   162    1
   190    77    76    1
   191   163   162    2
