@<TRIPOS>MOLECULE
tmp/2phfB00.pdb
 115 110 0 0 0
SMALL
GASTEIGER

@<TRIPOS>ATOM
      1  N         -8.5870  -21.2540   -9.0150 N.3    82  ASN82      -0.1240
      2  CA        -7.2300  -20.7130   -9.0340 C.3    82  ASN82       0.1653
      3  C         -7.1590  -19.2080   -8.7560 C.2    82  ASN82       0.2266
      4  O         -6.6670  -18.4420   -9.5840 O.2    82  ASN82      -0.2867
      5  CB        -6.5740  -21.0230  -10.3900 C.3    82  ASN82       0.1155
      6  CG        -7.4940  -20.7090  -11.5760 C.2    82  ASN82       0.2627
      7  OD1       -8.5610  -20.1070  -11.4110 O.2    82  ASN82      -0.2716
      8  ND2       -7.0740  -21.1110  -12.7810 N.am   82  ASN82      -0.0877
      9  N         -6.0490  -15.6000   -7.7020 N.3    84  ALA84      -0.1231
     10  CA        -4.7500  -14.9440   -7.7930 C.3    84  ALA84       0.1694
     11  C         -4.8930  -13.4660   -7.4200 C.2    84  ALA84       0.2592
     12  O         -6.0140  -12.9420   -7.4040 O.2    84  ALA84      -0.2718
     13  CB        -4.2160  -15.0790   -9.2180 C.3    84  ALA84       0.0304
     14  N         -3.7810  -12.7740   -7.1600 N.am   85  ASP85      -0.1974
     15  CA        -2.4190  -13.3170   -7.2070 C.3    85  ASP85       0.1709
     16  C         -1.7290  -13.4590   -5.8560 C.2    85  ASP85       0.2293
     17  O         -0.7410  -14.1850   -5.7320 O.2    85  ASP85      -0.2864
     18  CB        -1.5560  -12.4440   -8.1140 C.3    85  ASP85       0.1436
     19  CG        -1.7060  -12.8020   -9.5690 C.2    85  ASP85       0.3671
     20  OD1       -1.0450  -13.7670   -9.9960 O.co2  85  ASP85      -0.2456
     21  OD2       -2.4990  -12.1440  -10.2710 O.co2  85  ASP85      -0.2456
     22  N          1.0360   -5.2410  -12.0710 N.3   103  GLY103     -0.1210
     23  CA        -0.1210   -6.0630  -11.7630 C.3   103  GLY103      0.1956
     24  C          0.1350   -7.5590  -11.7890 C.2   103  GLY103      0.2612
     25  O          1.2570   -8.0080  -12.0370 O.2   103  GLY103     -0.2717
     26  N         -0.9170   -8.3310  -11.5240 N.am  104  GLY104     -0.1942
     27  CA        -0.8160   -9.7810  -11.5340 C.3   104  GLY104      0.2014
     28  C          0.2270  -10.3800  -10.6080 C.2   104  GLY104      0.2639
     29  O          0.2870  -10.0540   -9.4240 O.2   104  GLY104     -0.2714
     30  N          1.0530  -11.2630  -11.1600 N.am  105  GLY105     -0.1939
     31  CA         2.0850  -11.9220  -10.3810 C.3   105  GLY105      0.2014
     32  C          3.1420  -11.0200   -9.7700 C.2   105  GLY105      0.2638
     33  O          3.8970  -11.4650   -8.9080 O.2   105  GLY105     -0.2714
     34  N          3.2140   -9.7650  -10.2040 N.am  106  LEU106     -0.1977
     35  CA         4.2040   -8.8540   -9.6450 C.3   106  LEU106      0.1596
     36  C          3.7150   -8.2220   -8.3430 C.2   106  LEU106      0.2287
     37  O          4.4150   -7.4290   -7.7280 O.2   106  LEU106     -0.2864
     38  CB         4.6020   -7.7830  -10.6710 C.3   106  LEU106      0.0297
     39  CG         5.2640   -8.3440  -11.9410 C.3   106  LEU106      0.0022
     40  CD1        5.7860   -7.1970  -12.7900 C.3   106  LEU106      0.0001
     41  CD2        6.4170   -9.2780  -11.5710 C.3   106  LEU106      0.0001
     42  N         -0.9030  -17.9200   -6.8200 N.3   131  PHE131     -0.1241
     43  CA        -0.8690  -18.2650   -8.2440 C.3   131  PHE131      0.1605
     44  C          0.5680  -18.5490   -8.6620 C.2   131  PHE131      0.2264
     45  O          1.4360  -17.6890   -8.5290 O.2   131  PHE131     -0.2867
     46  CB        -1.4090  -17.1070   -9.0790 C.3   131  PHE131      0.0534
     47  CG        -1.7270  -17.4790  -10.5040 C.ar  131  PHE131     -0.0203
     48  CD1       -2.8910  -18.1760  -10.8110 C.ar  131  PHE131     -0.0042
     49  CD2       -0.8500  -17.1580  -11.5340 C.ar  131  PHE131     -0.0042
     50  CE1       -3.1790  -18.5480  -12.1300 C.ar  131  PHE131     -0.0003
     51  CE2       -1.1300  -17.5270  -12.8550 C.ar  131  PHE131     -0.0003
     52  CZ        -2.2990  -18.2230  -13.1500 C.ar  131  PHE131     -0.0000
     53  N          1.3280  -20.4940  -11.8870 N.3   133  ALA133     -0.1245
     54  CA         1.3930  -21.0620  -13.2320 C.3   133  ALA133      0.1562
     55  C          2.8160  -20.8860  -13.7490 C.2   133  ALA133      0.2260
     56  O          3.3090  -19.7660  -13.8920 O.2   133  ALA133     -0.2867
     57  CB         0.4070  -20.3660  -14.1470 C.3   133  ALA133      0.0290
     58  N          4.0600  -20.9360  -16.5350 N.3   135  ASP135     -0.1225
     59  CA         4.2400  -20.2740  -17.8270 C.3   135  ASP135      0.1805
     60  C          4.2270  -18.7540  -17.7130 C.2   135  ASP135      0.2598
     61  O          4.8060  -18.0590  -18.5500 O.2   135  ASP135     -0.2718
     62  CB         3.1550  -20.7260  -18.8110 C.3   135  ASP135      0.1424
     63  CG         1.7630  -20.3090  -18.3790 C.2   135  ASP135      0.3668
     64  OD1        1.3670  -20.6270  -17.2390 O.co2 135  ASP135     -0.2456
     65  OD2        1.0590  -19.6670  -19.1850 O.co2 135  ASP135     -0.2456
     66  N          3.5620  -18.2390  -16.6820 N.am  136  SER136     -0.1938
     67  CA         3.4790  -16.7970  -16.4680 C.3   136  SER136      0.2055
     68  C          4.3210  -16.3680  -15.2670 C.2   136  SER136      0.2643
     69  O          5.0470  -15.3740  -15.3300 O.2   136  SER136     -0.2714
     70  CB         2.0170  -16.3680  -16.2730 C.3   136  SER136      0.2130
     71  OG         1.4030  -17.0800  -15.2130 O.3   136  SER136     -0.2179
     72  N          4.2150  -17.1040  -14.1680 N.am  137  ASN137     -0.1971
     73  CA         5.0090  -16.7910  -12.9860 C.3   137  ASN137      0.1688
     74  C          6.1750  -17.7700  -12.9800 C.2   137  ASN137      0.2292
     75  O          6.2610  -18.6510  -12.1290 O.2   137  ASN137     -0.2864
     76  CB         4.1790  -16.9390  -11.7050 C.3   137  ASN137      0.1181
     77  CG         3.0380  -15.9300  -11.6180 C.2   137  ASN137      0.2629
     78  OD1        2.6560  -15.5170  -10.5240 O.2   137  ASN137     -0.2716
     79  ND2        2.4760  -15.5480  -12.7630 N.am  137  ASN137     -0.0877
     80  N          9.1580  -17.4890  -12.1180 N.3   139  TRP139     -0.1241
     81  CA        10.0220  -17.3890  -10.9460 C.3   139  TRP139      0.1605
     82  C          9.5270  -18.1580   -9.7190 C.2   139  TRP139      0.2264
     83  O         10.2880  -18.3700   -8.7760 O.2   139  TRP139     -0.2867
     84  CB        10.1810  -15.9150  -10.5960 C.3   139  TRP139      0.0550
     85  CG         8.8590  -15.2720  -10.3750 C.ar  139  TRP139      0.0003
     86  CD1        8.0790  -15.3650   -9.2610 C.ar  139  TRP139      0.0946
     87  CD2        8.1020  -14.5270  -11.3330 C.ar  139  TRP139      0.0152
     88  NE1        6.8810  -14.7270   -9.4660 N.ar  139  TRP139     -0.2442
     89  CE2        6.8690  -14.2030  -10.7300 C.ar  139  TRP139      0.0810
     90  CE3        8.3470  -14.1030  -12.6440 C.ar  139  TRP139      0.0012
     91  CZ2        5.8800  -13.4730  -11.3930 C.ar  139  TRP139      0.0191
     92  CZ3        7.3590  -13.3760  -13.3050 C.ar  139  TRP139      0.0001
     93  CH2        6.1410  -13.0710  -12.6760 C.ar  139  TRP139      0.0015
     94  N         -4.6330  -10.5010  -11.5720 N.3   219  GLY219     -0.1210
     95  CA        -4.4950  -10.3000  -13.0000 C.3   219  GLY219      0.1956
     96  C         -5.7030  -10.9050  -13.6930 C.2   219  GLY219      0.2612
     97  O         -6.8240  -10.4340  -13.5010 O.2   219  GLY219     -0.2717
     98  N         -5.4730  -11.9470  -14.4910 N.am  220  GLU220     -0.1965
     99  CA        -6.5410  -12.6430  -15.2140 C.3   220  GLU220      0.1733
    100  C         -7.4120  -13.4040  -14.2200 C.2   220  GLU220      0.2616
    101  O         -8.6310  -13.4470  -14.3590 O.2   220  GLU220     -0.2715
    102  CB        -5.9350  -13.6200  -16.2290 C.3   220  GLU220      0.0429
    103  CG        -5.0750  -12.9380  -17.2780 C.3   220  GLU220      0.1163
    104  CD        -5.8720  -12.4180  -18.4580 C.2   220  GLU220      0.3649
    105  OE1       -6.1170  -13.2140  -19.3950 O.co2 220  GLU220     -0.2457
    106  OE2       -6.2700  -11.2280  -18.4410 O.co2 220  GLU220     -0.2457
    107  N         -6.7730  -14.0300  -13.2360 N.am  221  GLN221     -0.1977
    108  CA        -7.4890  -14.7500  -12.1910 C.3   221  GLN221      0.1601
    109  C         -7.6060  -13.7710  -11.0270 C.2   221  GLN221      0.2287
    110  O         -6.7890  -12.8570  -10.8850 O.2   221  GLN221     -0.2864
    111  CB        -6.7320  -16.0040  -11.7570 C.3   221  GLN221      0.0394
    112  CG        -6.8710  -17.2110  -12.6850 C.3   221  GLN221      0.0908
    113  CD        -6.5030  -16.9180  -14.1250 C.2   221  GLN221      0.2608
    114  OE1       -7.3440  -16.5100  -14.9310 O.2   221  GLN221     -0.2717
    115  NE2       -5.2320  -17.1040  -14.4530 N.am  221  GLN221     -0.0878
@<TRIPOS>BOND
     1   105   104   ar
     2    65    63   ar
     3    62    63    1
     4    62    59    1
     5    61    60    2
     6   104   106   ar
     7   104   103    1
     8    63    64   ar
     9    59    60    1
    10    59    58    1
    11    60    66   am
    12   103   102    1
    13    66    67    1
    14    67    70    1
    15    67    68    1
    16    70    71    1
    17   102    99    1
    18    69    68    2
    19    68    72   am
    20    99    98    1
    21    99   100    1
    22   114   113    2
    23    98    96   am
    24   115   113   am
    25   101   100    2
    26   100   107   am
    27    72    73    1
    28    57    54    1
    29   113   112    1
    30    56    55    2
    31    55    54    1
    32    96    97    2
    33    96    95    1
    34    92    93   ar
    35    92    90   ar
    36   107   108    1
    37    54    53    1
    38    52    51   ar
    39    52    50   ar
    40    95    94    1
    41    73    74    1
    42    73    76    1
    43    74    75    2
    44    51    49   ar
    45    40    39    1
    46     8     6   am
    47    79    77   am
    48   112   111    1
    49    93    91   ar
    50    90    87   ar
    51   108   111    1
    52   108   109    1
    53    50    48   ar
    54    80    81    1
    55    22    23    1
    56    25    24    2
    57    39    41    1
    58    39    38    1
    59    24    23    1
    60    24    26   am
    61    76    77    1
    62    77    78    2
    63     6     7    2
    64     6     5    1
    65    27    26    1
    66    27    28    1
    67    49    47   ar
    68    91    89   ar
    69    87    89   ar
    70    87    85   ar
    71    30    28   am
    72    30    31    1
    73   109   110    2
    74    81    84    1
    75    81    82    1
    76    48    47   ar
    77    89    88   ar
    78    38    35    1
    79    28    29    2
    80    84    85    1
    81    47    46    1
    82     5     2    1
    83    31    32    1
    84    85    86   ar
    85    21    19   ar
    86    34    32   am
    87    34    35    1
    88    20    19   ar
    89    32    33    2
    90    82    83    2
    91    35    36    1
    92     4     3    2
    93    19    18    1
    94    88    86   ar
    95    13    10    1
    96    46    43    1
    97     2     1    1
    98     2     3    1
    99    44    45    2
   100    44    43    1
   101    36    37    2
   102    43    42    1
   103    18    15    1
   104    10     9    1
   105    10    11    1
   106    11    12    2
   107    11    14   am
   108    15    14    1
   109    15    16    1
   110    16    17    2
