@<TRIPOS>MOLECULE
tmp/2phkA00.pdb
 230 222 0 0 0
SMALL
GASTEIGER

@<TRIPOS>ATOM
      1  N         54.5800    6.2310   52.0220 N.3    12  LEU12      -0.1231
      2  CA        54.4380    6.2880   50.5780 C.3    12  LEU12       0.1693
      3  C         54.0770    7.7030   50.1140 C.2    12  LEU12       0.2593
      4  O         54.2240    8.0510   48.9450 O.2    12  LEU12      -0.2718
      5  CB        53.3460    5.3480   50.0720 C.3    12  LEU12       0.0284
      6  CG        53.3240    3.9060   50.5650 C.3    12  LEU12       0.0019
      7  CD1       52.0190    3.2350   50.1530 C.3    12  LEU12       0.0001
      8  CD2       54.5250    3.1320   50.0460 C.3    12  LEU12       0.0001
      9  N         53.5310    8.4800   51.0420 N.am   13  GLY13      -0.1942
     10  CA        53.0630    9.8190   50.7530 C.3    13  GLY13       0.2014
     11  C         52.6560   10.5890   52.0020 C.2    13  GLY13       0.2639
     12  O         52.4820   10.0360   53.0820 O.2    13  GLY13      -0.2714
     13  N         52.4980   11.9040   51.8390 N.am   14  ARG14      -0.1963
     14  CA        52.1640   12.7930   52.9410 C.3    14  ARG14       0.1729
     15  C         51.2450   13.9270   52.4990 C.2    14  ARG14       0.2617
     16  O         51.3550   14.4650   51.3970 O.2    14  ARG14      -0.2715
     17  CB        53.4340   13.3680   53.5760 C.3    14  ARG14       0.0348
     18  CG        53.2680   13.7930   55.0240 C.3    14  ARG14       0.0492
     19  CD        54.4770   13.4340   55.8790 C.3    14  ARG14       0.2205
     20  NE        54.3120   13.8970   57.2590 N.pl3  14  ARG14      -0.0865
     21  CZ        55.1790   13.6660   58.2390 C.cat  14  ARG14       0.5346
     22  NH1       56.2810   12.9700   57.9790 N.pl3  14  ARG14       0.1354
     23  NH2       54.9570   14.1200   59.4650 N.pl3  14  ARG14       0.1354
     24  N         50.3230   14.2930   53.3860 N.am   15  GLY15      -0.1940
     25  CA        49.3740   15.3620   53.1130 C.3    15  GLY15       0.2014
     26  C         49.4490   16.4540   54.1710 C.2    15  GLY15       0.2638
     27  O         50.3390   16.4680   55.0190 O.2    15  GLY15      -0.2714
     28  N         48.5030   17.3820   54.1360 N.am   16  VAL16      -0.1977
     29  CA        48.4470   18.4870   55.0820 C.3    16  VAL16       0.1596
     30  C         48.0850   17.9620   56.4680 C.2    16  VAL16       0.2287
     31  O         48.7190   18.2740   57.4750 O.2    16  VAL16      -0.2864
     32  CB        47.4120   19.5460   54.6590 C.3    16  VAL16       0.0276
     33  CG1       47.9010   20.9380   55.0420 C.3    16  VAL16       0.0022
     34  CG2       47.1000   19.4750   53.1650 C.3    16  VAL16       0.0022
     35  N         34.6190   16.3880   57.8350 N.3    56  ALA56      -0.1245
     36  CA        35.1650   16.3570   56.4820 C.3    56  ALA56       0.1562
     37  C         35.6180   14.9420   56.1330 C.2    56  ALA56       0.2260
     38  O         35.3530   14.4530   55.0320 O.2    56  ALA56      -0.2867
     39  CB        36.2810   17.3730   56.3180 C.3    56  ALA56       0.0290
     40  N         32.6630   12.5230   55.3190 N.3    59  LYS59      -0.1245
     41  CA        32.1170   12.7690   53.9830 C.3    59  LYS59       0.1561
     42  C         33.0340   12.1410   52.9370 C.2    59  LYS59       0.2260
     43  O         32.5460   11.5790   51.9500 O.2    59  LYS59      -0.2867
     44  CB        31.9220   14.2590   53.8100 C.3    59  LYS59       0.0271
     45  CG        31.2230   14.8280   52.5960 C.3    59  LYS59       0.0035
     46  CD        31.6630   16.2820   52.4320 C.3    59  LYS59       0.0206
     47  CE        30.5330   17.1930   51.9830 C.3    59  LYS59       0.1093
     48  NZ        31.0300   18.5720   51.6620 N.3    59  LYS59      -0.1314
     49  N         52.0660    7.3930   41.4500 N.3    97  GLU97      -0.1245
     50  CA        51.1980    8.3690   40.8080 C.3    97  GLU97       0.1567
     51  C         51.6290    8.7710   39.4020 C.2    97  GLU97       0.2260
     52  O         52.7400    8.5260   38.9490 O.2    97  GLU97      -0.2867
     53  CB        51.0920    9.6630   41.6280 C.3    97  GLU97       0.0388
     54  CG        51.4570    9.6340   43.0920 C.3    97  GLU97       0.1160
     55  CD        52.0950   10.9240   43.5750 C.2    97  GLU97       0.3649
     56  OE1       52.7740   11.5880   42.7610 O.co2  97  GLU97      -0.2457
     57  OE2       51.9320   11.2870   44.7610 O.co2  97  GLU97      -0.2457
     58  N         52.0950   11.7990   38.5060 N.3    99  PHE99      -0.1227
     59  CA        53.1090   12.8050   38.7430 C.3    99  PHE99       0.1736
     60  C         54.5140   12.2150   38.7400 C.2    99  PHE99       0.2595
     61  O         55.4300   12.8260   38.1850 O.2    99  PHE99      -0.2718
     62  CB        52.8730   13.5130   40.0800 C.3    99  PHE99       0.0547
     63  CG        53.8350   14.6330   40.3570 C.ar   99  PHE99      -0.0202
     64  CD1       53.6660   15.8760   39.7660 C.ar   99  PHE99      -0.0042
     65  CD2       54.9080   14.4480   41.2160 C.ar   99  PHE99      -0.0042
     66  CE1       54.5430   16.9140   40.0280 C.ar   99  PHE99      -0.0003
     67  CE2       55.7890   15.4810   41.4740 C.ar   99  PHE99      -0.0003
     68  CZ        55.6040   16.7160   40.8850 C.ar   99  PHE99      -0.0000
     69  N         54.7070   11.0570   39.3670 N.am  100  ASP100     -0.1974
     70  CA        56.0240   10.4240   39.3900 C.3   100  ASP100      0.1709
     71  C         56.3650    9.9340   37.9810 C.2   100  ASP100      0.2293
     72  O         57.4810   10.1260   37.4990 O.2   100  ASP100     -0.2864
     73  CB        56.0940    9.2670   40.3780 C.3   100  ASP100      0.1436
     74  CG        55.9740    9.6690   41.8350 C.2   100  ASP100      0.3671
     75  OD1       56.4410   10.7760   42.1790 O.co2 100  ASP100     -0.2456
     76  OD2       55.4120    8.8780   42.6270 O.co2 100  ASP100     -0.2456
     77  N         36.9130   18.0290   42.9060 N.3   135  ARG135     -0.1231
     78  CA        37.4070   19.2730   43.4670 C.3   135  ARG135      0.1694
     79  C         38.8920   19.2990   43.8290 C.2   135  ARG135      0.2592
     80  O         39.3720   20.1890   44.5510 O.2   135  ARG135     -0.2718
     81  CB        36.5400   19.7070   44.6630 C.3   135  ARG135      0.0321
     82  CG        36.5270   21.1990   44.9340 C.3   135  ARG135      0.0489
     83  CD        35.2700   21.7160   45.6070 C.3   135  ARG135      0.2205
     84  NE        35.0560   21.2230   46.9550 N.pl3 135  ARG135     -0.0865
     85  CZ        34.4480   21.8460   47.9530 C.cat 135  ARG135      0.5346
     86  NH1       33.9400   23.0660   47.8010 N.pl3 135  ARG135      0.1354
     87  NH2       34.3220   21.2720   49.1450 N.pl3 135  ARG135      0.1354
     88  N         39.6860   18.3730   43.2950 N.am  136  ASP136     -0.1974
     89  CA        41.1250   18.3300   43.5450 C.3   136  ASP136      0.1709
     90  C         41.8260   17.4420   42.5170 C.2   136  ASP136      0.2293
     91  O         42.7250   16.6620   42.8270 O.2   136  ASP136     -0.2864
     92  CB        41.4160   17.8950   44.9780 C.3   136  ASP136      0.1436
     93  CG        42.8220   18.2300   45.4360 C.2   136  ASP136      0.3671
     94  OD1       43.4890   19.0520   44.7720 O.co2 136  ASP136     -0.2456
     95  OD2       43.2890   17.6600   46.4430 O.co2 136  ASP136     -0.2456
     96  N         44.3390   16.2990   39.8140 N.3   138  LYS138     -0.1245
     97  CA        45.7540   16.5830   39.6080 C.3   138  LYS138      0.1561
     98  C         46.5550   15.2850   39.5140 C.2   138  LYS138      0.2260
     99  O         46.1310   14.2440   40.0290 O.2   138  LYS138     -0.2867
    100  CB        46.3060   17.4850   40.7130 C.3   138  LYS138      0.0271
    101  CG        46.3600   16.9320   42.1180 C.3   138  LYS138      0.0035
    102  CD        47.1270   17.8400   43.0750 C.3   138  LYS138      0.0206
    103  CE        47.2340   17.2400   44.4680 C.3   138  LYS138      0.1093
    104  NZ        47.4310   18.2600   45.5370 N.3   138  LYS138     -0.1314
    105  N         49.1550   14.0220   41.0380 N.3   140  GLU140     -0.1245
    106  CA        49.4420   13.3910   42.3090 C.3   140  GLU140      0.1567
    107  C         48.2870   12.5880   42.9120 C.2   140  GLU140      0.2260
    108  O         48.5070   11.8260   43.8590 O.2   140  GLU140     -0.2867
    109  CB        49.8580   14.4600   43.3350 C.3   140  GLU140      0.0388
    110  CG        51.0700   15.2870   42.9730 C.3   140  GLU140      0.1160
    111  CD        50.6970   16.6550   42.4270 C.2   140  GLU140      0.3649
    112  OE1       49.8220   16.7050   41.5340 O.co2 140  GLU140     -0.2457
    113  OE2       51.2820   17.6590   42.8850 O.co2 140  GLU140     -0.2457
    114  N         42.0650   10.2240   46.3500 N.3   154  ASP154     -0.1239
    115  CA        41.9650   11.4230   47.1570 C.3   154  ASP154      0.1674
    116  C         40.6410   12.1510   46.9840 C.2   154  ASP154      0.2266
    117  O         40.5600   13.1240   46.2310 O.2   154  ASP154     -0.2867
    118  CB        43.1440   12.3690   46.9390 C.3   154  ASP154      0.1410
    119  CG        43.2470   13.5080   47.9380 C.2   154  ASP154      0.3668
    120  OD1       42.3480   13.6710   48.7940 O.co2 154  ASP154     -0.2456
    121  OD2       44.2230   14.2930   47.8850 O.co2 154  ASP154     -0.2456
    122  N         39.0900   13.8170   49.3540 N.3   156  GLY156     -0.1210
    123  CA        39.1060   14.6300   50.5360 C.3   156  GLY156      0.1956
    124  C         38.3310   15.9320   50.4580 C.2   156  GLY156      0.2611
    125  O         37.8310   16.3970   51.4870 O.2   156  GLY156     -0.2717
    126  N         38.2350   16.5320   49.2790 N.am  157  PHE157     -0.1976
    127  CA        37.5090   17.7790   49.0890 C.3   157  PHE157      0.1639
    128  C         36.2390   17.5560   48.2730 C.2   157  PHE157      0.2290
    129  O         35.7360   18.5190   47.6930 O.2   157  PHE157     -0.2864
    130  CB        38.4150   18.7830   48.3780 C.3   157  PHE157      0.0560
    131  CG        39.5540   19.4380   49.0820 C.ar  157  PHE157     -0.0200
    132  CD1       39.6980   19.4370   50.4610 C.ar  157  PHE157     -0.0042
    133  CD2       40.5020   20.1420   48.3310 C.ar  157  PHE157     -0.0042
    134  CE1       40.7520   20.1050   51.0650 C.ar  157  PHE157     -0.0003
    135  CE2       41.5620   20.8000   48.9300 C.ar  157  PHE157     -0.0003
    136  CZ        41.6880   20.7780   50.3020 C.ar  157  PHE157     -0.0000
    137  N         33.3680   27.8730   49.0780 N.3   169  GLU169     -0.1231
    138  CA        34.6880   27.7870   49.6730 C.3   169  GLU169      0.1699
    139  C         35.8470   27.8590   48.6900 C.2   169  GLU169      0.2592
    140  O         35.7050   27.4200   47.5460 O.2   169  GLU169     -0.2718
    141  CB        34.7780   26.4470   50.4390 C.3   169  GLU169      0.0402
    142  CG        33.4480   25.7420   50.6410 C.3   169  GLU169      0.1161
    143  CD        33.5130   24.2360   50.7730 C.2   169  GLU169      0.3649
    144  OE1       34.5890   23.7490   51.1840 O.co2 169  GLU169     -0.2457
    145  OE2       32.5020   23.5550   50.4840 O.co2 169  GLU169     -0.2457
    146  N         37.0120   28.3480   49.1120 N.am  170  VAL170     -0.1966
    147  CA        38.2060   28.3580   48.2670 C.3   170  VAL170      0.1727
    148  C         39.1490   27.2440   48.7270 C.2   170  VAL170      0.2616
    149  O         39.7680   27.3510   49.7840 O.2   170  VAL170     -0.2715
    150  CB        38.9500   29.7000   48.2440 C.3   170  VAL170      0.0290
    151  CG1       40.1130   29.6890   47.2590 C.3   170  VAL170      0.0023
    152  CG2       37.9980   30.8360   47.8840 C.3   170  VAL170      0.0023
    153  N         39.2290   26.1780   47.9360 N.am  171  CYS171     -0.1954
    154  CA        40.0950   25.0480   48.2600 C.3   171  CYS171      0.1843
    155  C         40.5700   24.3420   46.9950 C.2   171  CYS171      0.2626
    156  O         39.9130   24.4680   45.9600 O.2   171  CYS171     -0.2714
    157  CB        39.3790   24.0710   49.1940 C.3   171  CYS171      0.0997
    158  SG        37.7140   23.5450   48.7300 S.3   171  CYS171     -0.0797
    159  N         41.6810   23.6210   47.0770 N.am  172  GLY172     -0.1940
    160  CA        42.2440   22.9000   45.9400 C.3   172  GLY172      0.2014
    161  C         43.7690   22.9880   45.9970 C.2   172  GLY172      0.2640
    162  O         44.3430   23.1270   47.0720 O.2   172  GLY172     -0.2714
    163  N         44.4280   22.8880   44.8590 N.am  173  THR173     -0.1937
    164  CA        45.8780   23.0160   44.7170 C.3   173  THR173      0.2013
    165  C         46.1050   24.1950   43.7750 C.2   173  THR173      0.2484
    166  O         45.3540   24.3760   42.8110 O.2   173  THR173     -0.2729
    167  CB        46.4950   21.7040   44.2220 C.3   173  THR173      0.1807
    168  OG1       45.9650   20.6280   45.0180 O.3   173  THR173     -0.2208
    169  CG2       48.0090   21.6900   44.3350 C.3   173  THR173      0.0379
    170  N         46.9490   25.1480   44.1480 N.am  174  PRO174     -0.2715
    171  CA        47.0170   26.4480   43.5140 C.3   174  PRO174      0.1536
    172  C         47.0300   26.5090   42.0060 C.2   174  PRO174      0.2599
    173  O         46.2120   27.2320   41.4040 O.2   174  PRO174     -0.2715
    174  CB        48.2580   27.0790   44.1410 C.3   174  PRO174      0.0310
    175  CG        48.2990   26.5090   45.5190 C.3   174  PRO174      0.0237
    176  CD        47.7760   25.0990   45.3890 C.3   174  PRO174      0.0939
    177  N         47.9090   25.7810   41.3350 N.am  175  SER175     -0.1936
    178  CA        48.0160   25.8010   39.8810 C.3   175  SER175      0.2055
    179  C         46.9710   25.0610   39.0670 C.2   175  SER175      0.2643
    180  O         46.8740   25.2210   37.8390 O.2   175  SER175     -0.2714
    181  CB        49.4610   25.3840   39.5460 C.3   175  SER175      0.2130
    182  OG        49.6190   24.0170   39.2890 O.3   175  SER175     -0.2179
    183  N         46.0310   24.3700   39.6970 N.am  176  TYR176     -0.1959
    184  CA        44.9150   23.6840   39.0830 C.3   176  TYR176      0.1771
    185  C         43.5640   24.3260   39.3850 C.2   176  TYR176      0.2619
    186  O         42.5300   23.8780   38.8710 O.2   176  TYR176     -0.2715
    187  CB        44.9200   22.2110   39.5410 C.3   176  TYR176      0.0574
    188  CG        46.1330   21.4500   39.0410 C.ar  176  TYR176     -0.0198
    189  CD1       47.3270   21.4760   39.7600 C.ar  176  TYR176     -0.0009
    190  CD2       46.0970   20.7180   37.8610 C.ar  176  TYR176     -0.0009
    191  CE1       48.4450   20.7980   39.3170 C.ar  176  TYR176      0.0417
    192  CE2       47.2120   20.0380   37.4140 C.ar  176  TYR176      0.0417
    193  CZ        48.3810   20.0820   38.1440 C.ar  176  TYR176      0.1957
    194  OH        49.4850   19.3950   37.6860 O.3   176  TYR176     -0.2866
    195  N         43.5230   25.3740   40.1980 N.am  177  LEU177     -0.1977
    196  CA        42.3310   26.0930   40.5960 C.3   177  LEU177      0.1596
    197  C         41.5540   26.7560   39.4580 C.2   177  LEU177      0.2287
    198  O         42.1220   27.5960   38.7620 O.2   177  LEU177     -0.2864
    199  CB        42.6780   27.2550   41.5390 C.3   177  LEU177      0.0297
    200  CG        42.9610   27.0550   43.0160 C.3   177  LEU177      0.0022
    201  CD1       43.1110   28.4130   43.7000 C.3   177  LEU177      0.0001
    202  CD2       41.8900   26.2230   43.7060 C.3   177  LEU177      0.0001
    203  N         36.6200   34.3160   46.1320 N.3   185  SER185     -0.1217
    204  CA        37.4020   34.8990   47.2060 C.3   185  SER185      0.1889
    205  C         37.5820   36.4070   47.1340 C.2   185  SER185      0.2288
    206  O         38.0220   37.0120   48.1220 O.2   185  SER185     -0.2866
    207  CB        38.7860   34.2280   47.2180 C.3   185  SER185      0.2089
    208  OG        39.6960   34.9310   48.0390 O.3   185  SER185     -0.2183
    209  N         52.1390   28.5450   34.8580 N.3   217  TRP217     -0.1241
    210  CA        53.3010   28.4330   35.7280 C.3   217  TRP217      0.1605
    211  C         54.1500   29.6880   35.8260 C.2   217  TRP217      0.2264
    212  O         54.6280   30.1730   34.7890 O.2   217  TRP217     -0.2867
    213  CB        54.1500   27.2920   35.1440 C.3   217  TRP217      0.0550
    214  CG        55.2180   26.7240   36.0160 C.ar  217  TRP217      0.0003
    215  CD1       56.3550   26.0780   35.6110 C.ar  217  TRP217      0.0946
    216  CD2       55.2680   26.7390   37.4460 C.ar  217  TRP217      0.0152
    217  NE1       57.1000   25.6950   36.6980 N.ar  217  TRP217     -0.2442
    218  CE2       56.4530   26.0910   37.8360 C.ar  217  TRP217      0.0810
    219  CE3       54.4120   27.2460   38.4280 C.ar  217  TRP217      0.0012
    220  CZ2       56.8040   25.9350   39.1750 C.ar  217  TRP217      0.0191
    221  CZ3       54.7570   27.0930   39.7560 C.ar  217  TRP217      0.0001
    222  CH2       55.9480   26.4400   40.1160 C.ar  217  TRP217      0.0015
    223  N         50.5360   34.6960   38.8380 N.3   224  MET224     -0.1245
    224  CA        50.0030   33.4090   38.4220 C.3   224  MET224      0.1570
    225  C         48.4720   33.4280   38.4910 C.2   224  MET224      0.2261
    226  O         47.7810   32.9570   37.5900 O.2   224  MET224     -0.2867
    227  CB        50.5240   32.2400   39.2640 C.3   224  MET224      0.0387
    228  CG        49.8380   30.9270   38.9200 C.3   224  MET224      0.0595
    229  SD        50.1050   29.5670   40.0660 S.3   224  MET224     -0.1393
    230  CE        51.6930   28.9800   39.4820 C.3   224  MET224      0.0692
@<TRIPOS>BOND
     1   212   211    2
     2   209   210    1
     3   213   210    1
     4   213   214    1
     5   215   214   ar
     6   215   217   ar
     7   210   211    1
     8   214   216   ar
     9   217   218   ar
    10   192   190   ar
    11   192   193   ar
    12   216   218   ar
    13   216   219   ar
    14    72    71    2
    15   226   225    2
    16   194   193    1
    17   218   220   ar
    18   180   179    2
    19   190   188   ar
    20    71    70    1
    21   193   191   ar
    22    61    60    2
    23   224   225    1
    24   224   223    1
    25   224   227    1
    26   219   221   ar
    27    58    59    1
    28    60    59    1
    29    60    69   am
    30    59    62    1
    31   198   197    2
    32   186   185    2
    33   228   227    1
    34   228   229    1
    35    52    51    2
    36   188   187    1
    37   188   189   ar
    38   179   183   am
    39   179   178    1
    40   184   185    1
    41   184   187    1
    42   184   183    1
    43   220   222   ar
    44   182   181    1
    45   191   189   ar
    46    69    70    1
    47   185   195   am
    48    70    73    1
    49    51    50    1
    50   197   196    1
    51   230   229    1
    52    98    97    1
    53    98    99    2
    54   181   178    1
    55    97    96    1
    56    97   100    1
    57   221   222   ar
    58    64    66   ar
    59    64    63   ar
    60   178   177    1
    61    66    68   ar
    62    62    63    1
    63   195   196    1
    64    63    65   ar
    65    73    74    1
    66   196   199    1
    67   100   101    1
    68    50    49    1
    69    50    53    1
    70    68    67   ar
    71   105   106    1
    72    65    67   ar
    73   177   172   am
    74   173   172    2
    75   112   111   ar
    76   199   200    1
    77    53    54    1
    78    74    75   ar
    79    74    76   ar
    80   172   171    1
    81   101   102    1
    82   106   107    1
    83   106   109    1
    84   111   113   ar
    85   111   110    1
    86    90    91    2
    87    90    89    1
    88    56    55   ar
    89   166   165    2
    90    77    78    1
    91   107   108    2
    92   110   109    1
    93   200   201    1
    94   200   202    1
    95   102   103    1
    96    54    55    1
    97    88    89    1
    98    88    79   am
    99    78    79    1
   100    78    81    1
   101   171   174    1
   102   171   170    1
   103    89    92    1
   104    55    57   ar
   105   165   170   am
   106   165   164    1
   107    79    80    2
   108   174   175    1
   109   170   176    1
   110   167   169    1
   111   167   164    1
   112   167   168    1
   113   103   104    1
   114    81    82    1
   115   164   163    1
   116    94    93   ar
   117   163   161   am
   118    82    83    1
   119    92    93    1
   120   176   175    1
   121    93    95   ar
   122    83    84    1
   123   160   161    1
   124   160   159    1
   125   156   155    2
   126   161   162    2
   127   203   204    1
   128   117   116    2
   129   114   115    1
   130   118   115    1
   131   118   119    1
   132    84    85    2
   133   116   115    1
   134   155   159   am
   135   155   154    1
   136   205   204    1
   137   205   206    2
   138   204   207    1
   139   207   208    1
   140   151   150    1
   141   140   139    2
   142   129   128    2
   143    86    85    1
   144   152   150    1
   145   121   119   ar
   146   153   154    1
   147   153   148   am
   148   119   120   ar
   149    85    87    1
   150   150   147    1
   151   154   157    1
   152   147   148    1
   153   147   146    1
   154   128   127    1
   155   133   135   ar
   156   133   131   ar
   157   130   131    1
   158   130   127    1
   159   139   146   am
   160   139   138    1
   161   148   149    2
   162   158   157    1
   163   135   136   ar
   164     4     3    2
   165   137   138    1
   166   131   132   ar
   167   127   126    1
   168   126   124   am
   169   122   123    1
   170   138   141    1
   171     8     6    1
   172     5     6    1
   173     5     2    1
   174     3     2    1
   175     3     9   am
   176     7     6    1
   177   136   134   ar
   178   141   142    1
   179   124   123    1
   180   124   125    2
   181   132   134   ar
   182   145   143   ar
   183     2     1    1
   184   142   143    1
   185    10     9    1
   186    10    11    1
   187   143   144   ar
   188    16    15    2
   189    48    47    1
   190    13    11   am
   191    13    14    1
   192    43    42    2
   193    47    46    1
   194    11    12    2
   195    46    45    1
   196    15    14    1
   197    15    24   am
   198    45    44    1
   199    42    41    1
   200    14    17    1
   201    25    24    1
   202    25    26    1
   203    34    32    1
   204    17    18    1
   205    44    41    1
   206    41    40    1
   207    28    26   am
   208    28    29    1
   209    26    27    2
   210    32    33    1
   211    32    29    1
   212    18    19    1
   213    38    37    2
   214    29    30    1
   215    19    20    1
   216    37    36    1
   217    39    36    1
   218    30    31    2
   219    36    35    1
   220    20    21    2
   221    22    21    1
   222    21    23    1
