@<TRIPOS>MOLECULE
tmp/2phlC00.pdb
 77 75 0 0 0
SMALL
GASTEIGER

@<TRIPOS>ATOM
      1  N         37.8930    9.4200   30.1320 N.3   203  THR203     -0.1218
      2  CA        38.0700   10.7500   29.5550 C.3   203  THR203      0.1862
      3  C         36.7890   11.4860   29.2020 C.2   203  THR203      0.2287
      4  O         35.8170   10.8860   28.7650 O.2   203  THR203     -0.2866
      5  CB        38.9810   10.6910   28.3110 C.3   203  THR203      0.1770
      6  OG1       40.3160   10.3890   28.7290 O.3   203  THR203     -0.2211
      7  CG2       38.9830   12.0120   27.5540 C.3   203  THR203      0.0375
      8  N         36.0790   15.2160   27.3750 N.3   205  GLY205     -0.1210
      9  CA        36.6740   16.4110   26.8060 C.3   205  GLY205      0.1956
     10  C         36.2210   16.7160   25.3950 C.2   205  GLY205      0.2612
     11  O         35.4750   15.9570   24.7790 O.2   205  GLY205     -0.2717
     12  N         36.7360   17.8060   24.8570 N.am  206  ASN206     -0.1960
     13  CA        36.3580   18.2440   23.5390 C.3   206  ASN206      0.1819
     14  C         37.5540   18.9210   22.8870 C.2   206  ASN206      0.2621
     15  O         38.7010   18.6110   23.2170 O.2   206  ASN206     -0.2715
     16  CB        35.1720   19.2080   23.6550 C.3   206  ASN206      0.1195
     17  CG        35.3830   20.2910   24.7200 C.2   206  ASN206      0.2630
     18  OD1       36.4990   20.7770   24.9240 O.2   206  ASN206     -0.2716
     19  ND2       34.3060   20.6820   25.3830 N.am  206  ASN206     -0.0877
     20  N         37.2910   19.8280   21.9480 N.am  207  GLU207     -0.1963
     21  CA        38.3610   20.5410   21.2510 C.3   207  GLU207      0.1733
     22  C         39.1120   21.5410   22.1450 C.2   207  GLU207      0.2616
     23  O         40.2330   21.9450   21.8300 O.2   207  GLU207     -0.2715
     24  CB        37.8050   21.2490   20.0060 C.3   207  GLU207      0.0429
     25  CG        36.4380   21.9120   20.2180 C.3   207  GLU207      0.1163
     26  CD        36.2490   23.2100   19.4270 C.2   207  GLU207      0.3649
     27  OE1       37.2470   23.7770   18.9170 O.co2 207  GLU207     -0.2457
     28  OE2       35.0890   23.6780   19.3450 O.co2 207  GLU207     -0.2457
     29  N         38.5090   21.9160   23.2710 N.am  208  PHE208     -0.1960
     30  CA        39.1300   22.8700   24.1760 C.3   208  PHE208      0.1771
     31  C         39.9260   22.2730   25.3010 C.2   208  PHE208      0.2620
     32  O         40.8720   22.8830   25.7860 O.2   208  PHE208     -0.2715
     33  CB        38.0820   23.7900   24.7350 C.3   208  PHE208      0.0574
     34  CG        37.4250   24.6040   23.6910 C.ar  208  PHE208     -0.0200
     35  CD1       38.1280   25.5980   23.0420 C.ar  208  PHE208     -0.0042
     36  CD2       36.1210   24.3490   23.3180 C.ar  208  PHE208     -0.0042
     37  CE1       37.5410   26.3180   22.0390 C.ar  208  PHE208     -0.0003
     38  CE2       35.5310   25.0650   22.3160 C.ar  208  PHE208     -0.0003
     39  CZ        36.2390   26.0540   21.6710 C.ar  208  PHE208     -0.0000
     40  N         39.5400   21.0850   25.7280 N.am  209  GLY209     -0.1940
     41  CA        40.2630   20.4480   26.8030 C.3   209  GLY209      0.2014
     42  C         39.8420   19.0190   27.0180 C.2   209  GLY209      0.2638
     43  O         38.7870   18.5860   26.5550 O.2   209  GLY209     -0.2714
     44  N         40.6660   18.2920   27.7530 N.am  210  ASN210     -0.1972
     45  CA        40.3850   16.8950   28.0570 C.3   210  ASN210      0.1688
     46  C         40.6580   16.5670   29.5210 C.2   210  ASN210      0.2292
     47  O         41.7190   16.8890   30.0320 O.2   210  ASN210     -0.2864
     48  CB        41.2530   15.9820   27.1880 C.3   210  ASN210      0.1181
     49  CG        40.6310   15.6810   25.8430 C.2   210  ASN210      0.2629
     50  OD1       39.4550   15.3610   25.7370 O.2   210  ASN210     -0.2716
     51  ND2       41.4620   15.7140   24.8170 N.am  210  ASN210     -0.0877
     52  N         44.4120   18.8590   30.1170 N.3   227  GLU227     -0.1231
     53  CA        45.1300   19.5290   29.0250 C.3   227  GLU227      0.1699
     54  C         44.0870   20.5030   28.5080 C.2   227  GLU227      0.2592
     55  O         42.9190   20.1450   28.3950 O.2   227  GLU227     -0.2718
     56  CB        45.4890   18.5880   27.8830 C.3   227  GLU227      0.0402
     57  CG        45.9320   17.2160   28.2690 C.3   227  GLU227      0.1161
     58  CD        45.4370   16.1810   27.2650 C.2   227  GLU227      0.3649
     59  OE1       45.4080   16.4810   26.0420 O.co2 227  GLU227     -0.2457
     60  OE2       45.0460   15.0720   27.7070 O.co2 227  GLU227     -0.2457
     61  N         44.4940   21.7390   28.2590 N.am  228  MET228     -0.1965
     62  CA        43.5960   22.7640   27.7490 C.3   228  MET228      0.1736
     63  C         44.2800   23.6140   26.6590 C.2   228  MET228      0.2616
     64  O         45.5050   23.8640   26.6960 O.2   228  MET228     -0.2715
     65  CB        43.1300   23.6770   28.8920 C.3   228  MET228      0.0427
     66  CG        42.2120   23.0350   29.9180 C.3   228  MET228      0.0599
     67  SD        41.9860   24.0950   31.3790 S.3   228  MET228     -0.1393
     68  CE        40.8810   25.2820   30.6760 C.3   228  MET228      0.0692
     69  N         43.4950   24.0190   25.6650 N.am  229  GLU229     -0.1977
     70  CA        44.0140   24.8580   24.5880 C.3   229  GLU229      0.1602
     71  C         44.0320   26.3000   25.0940 C.2   229  GLU229      0.2287
     72  O         43.1210   26.7240   25.8290 O.2   229  GLU229     -0.2864
     73  CB        43.1460   24.7270   23.3420 C.3   229  GLU229      0.0415
     74  CG        43.2260   23.3580   22.6970 C.3   229  GLU229      0.1163
     75  CD        44.6100   23.0560   22.1450 C.2   229  GLU229      0.3649
     76  OE1       45.5610   22.8670   22.9460 O.co2 229  GLU229     -0.2457
     77  OE2       44.7470   23.0110   20.9010 O.co2 229  GLU229     -0.2457
@<TRIPOS>BOND
     1    27    26   ar
     2    28    26   ar
     3    26    25    1
     4    24    25    1
     5    24    21    1
     6    77    75   ar
     7    21    20    1
     8    21    22    1
     9    39    37   ar
    10    39    38   ar
    11    23    22    2
    12    20    14   am
    13    37    35   ar
    14    22    29   am
    15    75    74    1
    16    75    76   ar
    17    38    36   ar
    18    74    73    1
    19    14    15    2
    20    14    13    1
    21    35    34   ar
    22    29    30    1
    23    36    34   ar
    24    73    70    1
    25    13    16    1
    26    13    12    1
    27    16    17    1
    28    34    33    1
    29    30    33    1
    30    30    31    1
    31    70    71    1
    32    70    69    1
    33    17    18    2
    34    17    19   am
    35    11    10    2
    36    51    49   am
    37    12    10   am
    38    71    72    2
    39    31    40   am
    40    31    32    2
    41    10     9    1
    42    69    63   am
    43    40    41    1
    44    50    49    2
    45    49    48    1
    46    59    58   ar
    47    43    42    2
    48    63    64    2
    49    63    62    1
    50    41    42    1
    51     9     8    1
    52    42    44   am
    53    48    45    1
    54    58    60   ar
    55    58    57    1
    56     7     5    1
    57    62    61    1
    58    62    65    1
    59    44    45    1
    60    56    57    1
    61    56    53    1
    62    45    46    1
    63    61    54   am
    64     5     6    1
    65     5     2    1
    66    55    54    2
    67    54    53    1
    68     4     3    2
    69    65    66    1
    70    53    52    1
    71     3     2    1
    72    46    47    2
    73     2     1    1
    74    66    67    1
    75    68    67    1
