@<TRIPOS>MOLECULE
tmp/2phrA00.pdb
 99 95 0 0 0
SMALL
GASTEIGER

@<TRIPOS>ATOM
      1  N         10.3970   35.0550   29.7220 N.3    84  ALA84      -0.1231
      2  CA         9.0220   34.9050   29.2490 C.3    84  ALA84       0.1694
      3  C          9.0400   34.1930   27.8930 C.2    84  ALA84       0.2592
      4  O         10.0820   34.1450   27.2400 O.2    84  ALA84      -0.2718
      5  CB         8.3690   36.2780   29.1170 C.3    84  ALA84       0.0304
      6  N          7.9050   33.6550   27.4480 N.am   85  ASP85      -0.1974
      7  CA         6.6260   33.6910   28.1570 C.3    85  ASP85       0.1709
      8  C          6.1580   32.3480   28.7030 C.2    85  ASP85       0.2293
      9  O          5.3200   32.2960   29.6080 O.2    85  ASP85      -0.2864
     10  CB         5.5550   34.2450   27.2220 C.3    85  ASP85       0.1436
     11  CG         5.4890   35.7470   27.2560 C.2    85  ASP85       0.3671
     12  OD1        4.8360   36.2710   28.1820 O.co2  85  ASP85      -0.2456
     13  OD2        6.1050   36.3950   26.3790 O.co2  85  ASP85      -0.2456
     14  N          1.4690   35.9390   19.7670 N.3   103  GLY103     -0.1210
     15  CA         2.7490   35.9580   20.4480 C.3   103  GLY103      0.1956
     16  C          2.6590   36.3000   21.9280 C.2   103  GLY103      0.2612
     17  O          1.5680   36.4140   22.4950 O.2   103  GLY103     -0.2717
     18  N          3.8200   36.4550   22.5530 N.am  104  GLY104     -0.1942
     19  CA         3.8700   36.8000   23.9630 C.3   104  GLY104      0.2014
     20  C          3.0550   35.9110   24.8830 C.2   104  GLY104      0.2639
     21  O          3.1260   34.6830   24.8040 O.2   104  GLY104     -0.2714
     22  N          2.2690   36.5450   25.7480 N.am  105  GLY105     -0.1954
     23  CA         1.4540   35.8220   26.7090 C.3   105  GLY105      0.1869
     24  C          0.3660   34.9150   26.1670 C.2   105  GLY105      0.2309
     25  O         -0.2560   34.1740   26.9370 O.2   105  GLY105     -0.2863
     26  N          5.5480   34.3550   32.9930 N.3   131  PHE131     -0.1241
     27  CA         5.3750   35.8080   32.9740 C.3   131  PHE131      0.1605
     28  C          3.9230   36.1420   33.2840 C.2   131  PHE131      0.2264
     29  O          3.0140   35.6330   32.6360 O.2   131  PHE131     -0.2867
     30  CB         5.7510   36.3620   31.6010 C.3   131  PHE131      0.0534
     31  CG         5.9380   37.8490   31.5840 C.ar  131  PHE131     -0.0203
     32  CD1        7.1150   38.4170   32.0650 C.ar  131  PHE131     -0.0042
     33  CD2        4.9240   38.6850   31.1330 C.ar  131  PHE131     -0.0042
     34  CE1        7.2800   39.8030   32.0980 C.ar  131  PHE131     -0.0003
     35  CE2        5.0790   40.0750   31.1640 C.ar  131  PHE131     -0.0003
     36  CZ         6.2590   40.6300   31.6470 C.ar  131  PHE131     -0.0000
     37  N          2.8560   39.7410   34.3690 N.3   133  ALA133     -0.1245
     38  CA         2.6160   41.1760   34.5380 C.3   133  ALA133      0.1562
     39  C          1.1620   41.4880   34.1890 C.2   133  ALA133      0.2260
     40  O          0.6850   41.1600   33.1040 O.2   133  ALA133     -0.2867
     41  CB         3.5580   41.9750   33.6540 C.3   133  ALA133      0.0290
     42  N         -0.3170   44.1870   33.3270 N.3   135  ASP135     -0.1225
     43  CA        -0.6080   45.1460   32.2630 C.3   135  ASP135      0.1805
     44  C         -0.8840   44.4260   30.9420 C.2   135  ASP135      0.2598
     45  O         -1.7400   44.8530   30.1600 O.2   135  ASP135     -0.2718
     46  CB         0.5570   46.1250   32.0710 C.3   135  ASP135      0.1424
     47  CG         1.8870   45.4190   31.8960 C.2   135  ASP135      0.3668
     48  OD1        2.3420   44.7820   32.8640 O.co2 135  ASP135     -0.2456
     49  OD2        2.4760   45.4900   30.7950 O.co2 135  ASP135     -0.2456
     50  N         -0.1660   43.3300   30.7040 N.am  136  SER136     -0.1938
     51  CA        -0.3110   42.5590   29.4680 C.3   136  SER136      0.2055
     52  C         -0.9410   41.1700   29.6270 C.2   136  SER136      0.2643
     53  O         -1.6130   40.6830   28.7100 O.2   136  SER136     -0.2714
     54  CB         1.0550   42.4250   28.7890 C.3   136  SER136      0.2130
     55  OG         1.9960   41.8320   29.6690 O.3   136  SER136     -0.2179
     56  N         -0.7150   40.5280   30.7710 N.am  137  ASN137     -0.1971
     57  CA        -1.2840   39.2020   31.0380 C.3   137  ASN137      0.1688
     58  C         -2.3330   39.3340   32.1410 C.2   137  ASN137      0.2292
     59  O         -2.2100   38.7200   33.1970 O.2   137  ASN137     -0.2864
     60  CB        -0.2050   38.2150   31.5070 C.3   137  ASN137      0.1181
     61  CG         0.8070   37.8780   30.4270 C.2   137  ASN137      0.2629
     62  OD1        1.1160   36.7050   30.2090 O.2   137  ASN137     -0.2716
     63  ND2        1.3450   38.8970   29.7620 N.am  137  ASN137     -0.0877
     64  N         -5.1260   38.0720   32.6020 N.3   139  TRP139     -0.1241
     65  CA        -5.8140   36.8320   32.9530 C.3   139  TRP139      0.1605
     66  C         -5.0450   35.9330   33.9270 C.2   139  TRP139      0.2264
     67  O         -5.6150   34.9860   34.4720 O.2   139  TRP139     -0.2867
     68  CB        -6.0980   36.0580   31.6670 C.3   139  TRP139      0.0550
     69  CG        -4.8580   35.8870   30.8570 C.ar  139  TRP139      0.0003
     70  CD1       -3.8180   35.0420   31.1180 C.ar  139  TRP139      0.0946
     71  CD2       -4.4630   36.6720   29.7260 C.ar  139  TRP139      0.0152
     72  NE1       -2.7980   35.2550   30.2220 N.ar  139  TRP139     -0.2442
     73  CE2       -3.1660   36.2510   29.3560 C.ar  139  TRP139      0.0810
     74  CE3       -5.0790   37.6960   28.9900 C.ar  139  TRP139      0.0012
     75  CZ2       -2.4710   36.8160   28.2780 C.ar  139  TRP139      0.0191
     76  CZ3       -4.3880   38.2590   27.9190 C.ar  139  TRP139      0.0001
     77  CH2       -3.0950   37.8170   27.5750 C.ar  139  TRP139      0.0015
     78  N          7.6620   37.4200   24.1280 N.3   219  GLY219     -0.1210
     79  CA         7.2450   38.7310   23.6580 C.3   219  GLY219      0.1956
     80  C          8.4110   39.6820   23.8460 C.2   219  GLY219      0.2612
     81  O          9.4600   39.4970   23.2250 O.2   219  GLY219     -0.2717
     82  N          8.2520   40.6930   24.6990 N.am  220  GLU220     -0.1965
     83  CA         9.3500   41.6260   24.9430 C.3   220  GLU220      0.1733
     84  C         10.3800   41.0180   25.8800 C.2   220  GLU220      0.2616
     85  O         11.5610   41.3640   25.8240 O.2   220  GLU220     -0.2715
     86  CB         8.8310   42.9570   25.4870 C.3   220  GLU220      0.0429
     87  CG         8.0870   43.7550   24.4320 C.3   220  GLU220      0.1163
     88  CD         7.7590   45.1600   24.8810 C.2   220  GLU220      0.3649
     89  OE1        8.6980   45.8800   25.2870 O.co2 220  GLU220     -0.2457
     90  OE2        6.5710   45.5450   24.8160 O.co2 220  GLU220     -0.2457
     91  N          9.9290   40.1290   26.7580 N.am  221  GLN221     -0.1977
     92  CA        10.8390   39.4180   27.6480 C.3   221  GLN221      0.1601
     93  C         11.0530   38.0740   26.9580 C.2   221  GLN221      0.2287
     94  O         10.1770   37.6050   26.2250 O.2   221  GLN221     -0.2864
     95  CB        10.2450   39.2340   29.0470 C.3   221  GLN221      0.0394
     96  CG        10.4730   40.4320   29.9720 C.3   221  GLN221      0.0908
     97  CD         9.8380   41.7080   29.4630 C.2   221  GLN221      0.2608
     98  OE1        8.6160   41.7910   29.3140 O.2   221  GLN221     -0.2717
     99  NE2       10.6670   42.7170   29.1910 N.am  221  GLN221     -0.0878
@<TRIPOS>BOND
     1    14    15    1
     2    15    16    1
     3    16    17    2
     4    16    18   am
     5    18    19    1
     6    81    80    2
     7    79    80    1
     8    79    78    1
     9    80    82   am
    10    19    20    1
    11    87    88    1
    12    87    86    1
    13    82    83    1
    14    21    20    2
    15    90    88   ar
    16    88    89   ar
    17    20    22   am
    18    83    86    1
    19    83    84    1
    20    22    23    1
    21    85    84    2
    22    84    91   am
    23    24    23    1
    24    24    25    2
    25    94    93    2
    26    13    11   ar
    27    91    92    1
    28    93    92    1
    29    10    11    1
    30    10     7    1
    31     4     3    2
    32    11    12   ar
    33     6     3   am
    34     6     7    1
    35    77    76   ar
    36    77    75   ar
    37    92    95    1
    38     3     2    1
    39    76    74   ar
    40     7     8    1
    41    75    73   ar
    42     8     9    2
    43    53    52    2
    44    54    51    1
    45    54    55    1
    46    74    71   ar
    47    95    96    1
    48     5     2    1
    49    99    97   am
    50     2     1    1
    51    98    97    2
    52    73    71   ar
    53    73    72   ar
    54    97    96    1
    55    51    52    1
    56    51    50    1
    57    52    56   am
    58    71    69   ar
    59    63    61   am
    60    45    44    2
    61    62    61    2
    62    72    70   ar
    63    61    60    1
    64    50    44   am
    65    56    57    1
    66    49    47   ar
    67    69    70   ar
    68    69    68    1
    69    44    43    1
    70    57    60    1
    71    57    58    1
    72    33    35   ar
    73    33    31   ar
    74    35    36   ar
    75    31    30    1
    76    31    32   ar
    77    30    27    1
    78    36    34   ar
    79    68    65    1
    80    47    46    1
    81    47    48   ar
    82    32    34   ar
    83    46    43    1
    84    58    59    2
    85    43    42    1
    86    64    65    1
    87    29    28    2
    88    65    66    1
    89    27    26    1
    90    27    28    1
    91    40    39    2
    92    41    38    1
    93    66    67    2
    94    39    38    1
    95    37    38    1
