@<TRIPOS>MOLECULE
tmp/2phrB00.pdb
 115 110 0 0 0
SMALL
GASTEIGER

@<TRIPOS>ATOM
      1  N         -8.5710  -21.2700   -9.0050 N.3    82  ASN82      -0.1240
      2  CA        -7.2070  -20.7530   -8.9870 C.3    82  ASN82       0.1653
      3  C         -7.1260  -19.2470   -8.7210 C.2    82  ASN82       0.2266
      4  O         -6.6300  -18.4810   -9.5520 O.2    82  ASN82      -0.2867
      5  CB        -6.5220  -21.1140  -10.3150 C.3    82  ASN82       0.1155
      6  CG        -7.3180  -20.6530  -11.5350 C.2    82  ASN82       0.2627
      7  OD1       -8.5390  -20.4650  -11.4650 O.2    82  ASN82      -0.2716
      8  ND2       -6.6340  -20.5070  -12.6700 N.am   82  ASN82      -0.0877
      9  N         -6.0370  -15.6190   -7.6500 N.3    84  ALA84      -0.1231
     10  CA        -4.7420  -14.9500   -7.7540 C.3    84  ALA84       0.1694
     11  C         -4.8950  -13.4810   -7.3630 C.2    84  ALA84       0.2592
     12  O         -6.0170  -12.9750   -7.3150 O.2    84  ALA84      -0.2718
     13  CB        -4.2250  -15.0640   -9.1920 C.3    84  ALA84       0.0304
     14  N         -3.7880  -12.7790   -7.1140 N.am   85  ASP85      -0.1974
     15  CA        -2.4260  -13.3130   -7.1890 C.3    85  ASP85       0.1709
     16  C         -1.7190  -13.4520   -5.8460 C.2    85  ASP85       0.2293
     17  O         -0.7600  -14.2150   -5.7190 O.2    85  ASP85      -0.2864
     18  CB        -1.5840  -12.4230   -8.1090 C.3    85  ASP85       0.1436
     19  CG        -1.7390  -12.7890   -9.5670 C.2    85  ASP85       0.3671
     20  OD1       -1.0100  -13.7000  -10.0150 O.co2  85  ASP85      -0.2456
     21  OD2       -2.6000  -12.1930  -10.2530 O.co2  85  ASP85      -0.2456
     22  N          1.0500   -5.2030  -12.0210 N.3   103  GLY103     -0.1210
     23  CA        -0.0910   -6.0310  -11.6740 C.3   103  GLY103      0.1956
     24  C          0.1560   -7.5280  -11.7200 C.2   103  GLY103      0.2612
     25  O          1.2740   -7.9850  -11.9650 O.2   103  GLY103     -0.2717
     26  N         -0.8990   -8.2950  -11.4690 N.am  104  GLY104     -0.1942
     27  CA        -0.7930   -9.7440  -11.5000 C.3   104  GLY104      0.2014
     28  C          0.2650  -10.3380  -10.5900 C.2   104  GLY104      0.2639
     29  O          0.3280  -10.0210   -9.4010 O.2   104  GLY104     -0.2714
     30  N          1.1010  -11.1990  -11.1600 N.am  105  GLY105     -0.1939
     31  CA         2.1470  -11.8620  -10.3990 C.3   105  GLY105      0.2014
     32  C          3.2240  -10.9690   -9.8130 C.2   105  GLY105      0.2638
     33  O          4.0520  -11.4380   -9.0290 O.2   105  GLY105     -0.2714
     34  N          3.2350   -9.6940  -10.1860 N.am  106  LEU106     -0.1977
     35  CA         4.2350   -8.7840   -9.6440 C.3   106  LEU106      0.1596
     36  C          3.7370   -8.1610   -8.3430 C.2   106  LEU106      0.2287
     37  O          4.4340   -7.3730   -7.7140 O.2   106  LEU106     -0.2864
     38  CB         4.6090   -7.7150  -10.6770 C.3   106  LEU106      0.0297
     39  CG         5.2670   -8.3130  -11.9310 C.3   106  LEU106      0.0022
     40  CD1        5.7340   -7.1900  -12.8410 C.3   106  LEU106      0.0001
     41  CD2        6.4540   -9.1970  -11.5410 C.3   106  LEU106      0.0001
     42  N         -0.8230  -17.9220   -6.8090 N.3   131  PHE131     -0.1241
     43  CA        -0.8080  -18.2410   -8.2380 C.3   131  PHE131      0.1605
     44  C          0.6190  -18.5320   -8.6750 C.2   131  PHE131      0.2264
     45  O          1.4960  -17.6810   -8.5470 O.2   131  PHE131     -0.2867
     46  CB        -1.3490  -17.0660   -9.0430 C.3   131  PHE131      0.0534
     47  CG        -1.6730  -17.4100  -10.4670 C.ar  131  PHE131     -0.0203
     48  CD1       -2.8410  -18.0980  -10.7780 C.ar  131  PHE131     -0.0042
     49  CD2       -0.7960  -17.0740  -11.4950 C.ar  131  PHE131     -0.0042
     50  CE1       -3.1350  -18.4470  -12.0980 C.ar  131  PHE131     -0.0003
     51  CE2       -1.0820  -17.4210  -12.8170 C.ar  131  PHE131     -0.0003
     52  CZ        -2.2560  -18.1080  -13.1150 C.ar  131  PHE131     -0.0000
     53  N          1.3920  -20.4790  -11.9120 N.3   133  ALA133     -0.1245
     54  CA         1.4550  -21.0500  -13.2570 C.3   133  ALA133      0.1562
     55  C          2.8740  -20.8580  -13.7870 C.2   133  ALA133      0.2260
     56  O          3.3390  -19.7290  -13.9590 O.2   133  ALA133     -0.2867
     57  CB         0.4480  -20.3600  -14.1700 C.3   133  ALA133      0.0290
     58  N          4.1140  -20.9280  -16.5790 N.3   135  ASP135     -0.1225
     59  CA         4.2540  -20.2270  -17.8510 C.3   135  ASP135      0.1805
     60  C          4.2380  -18.7100  -17.7070 C.2   135  ASP135      0.2598
     61  O          4.8570  -18.0030  -18.5010 O.2   135  ASP135     -0.2718
     62  CB         3.1560  -20.6690  -18.8290 C.3   135  ASP135      0.1424
     63  CG         1.7550  -20.5030  -18.2590 C.2   135  ASP135      0.3668
     64  OD1        0.7790  -20.7780  -18.9900 O.co2 135  ASP135     -0.2456
     65  OD2        1.6260  -20.1080  -17.0820 O.co2 135  ASP135     -0.2456
     66  N          3.5360  -18.2050  -16.6970 N.am  136  SER136     -0.1938
     67  CA         3.4620  -16.7620  -16.4810 C.3   136  SER136      0.2055
     68  C          4.3040  -16.3260  -15.2840 C.2   136  SER136      0.2643
     69  O          5.0200  -15.3240  -15.3540 O.2   136  SER136     -0.2714
     70  CB         2.0060  -16.3250  -16.2900 C.3   136  SER136      0.2130
     71  OG         1.3960  -17.0400  -15.2340 O.3   136  SER136     -0.2179
     72  N          4.2070  -17.0630  -14.1820 N.am  137  ASN137     -0.1971
     73  CA         4.9980  -16.7490  -12.9940 C.3   137  ASN137      0.1688
     74  C          6.1790  -17.7160  -12.9780 C.2   137  ASN137      0.2292
     75  O          6.2870  -18.5790  -12.1080 O.2   137  ASN137     -0.2864
     76  CB         4.1700  -16.9180  -11.7120 C.3   137  ASN137      0.1181
     77  CG         3.0240  -15.9140  -11.6020 C.2   137  ASN137      0.2629
     78  OD1        2.6560  -15.5130  -10.4980 O.2   137  ASN137     -0.2716
     79  ND2        2.4420  -15.5260  -12.7350 N.am  137  ASN137     -0.0877
     80  N          9.1780  -17.4320  -12.1170 N.3   139  TRP139     -0.1241
     81  CA        10.0410  -17.3470  -10.9390 C.3   139  TRP139      0.1605
     82  C          9.5570  -18.1320   -9.7150 C.2   139  TRP139      0.2264
     83  O         10.3290  -18.3600   -8.7850 O.2   139  TRP139     -0.2867
     84  CB        10.2110  -15.8750  -10.5710 C.3   139  TRP139      0.0550
     85  CG         8.8930  -15.2010  -10.3990 C.ar  139  TRP139      0.0003
     86  CD1        8.0730  -15.2660   -9.3080 C.ar  139  TRP139      0.0946
     87  CD2        8.1780  -14.4630  -11.3930 C.ar  139  TRP139      0.0152
     88  NE1        6.8910  -14.6170   -9.5630 N.ar  139  TRP139     -0.2442
     89  CE2        6.9270  -14.1140  -10.8360 C.ar  139  TRP139      0.0810
     90  CE3        8.4710  -14.0640  -12.7040 C.ar  139  TRP139      0.0012
     91  CZ2        5.9680  -13.3820  -11.5440 C.ar  139  TRP139      0.0191
     92  CZ3        7.5140  -13.3350  -13.4100 C.ar  139  TRP139      0.0001
     93  CH2        6.2780  -13.0030  -12.8250 C.ar  139  TRP139      0.0015
     94  N         -4.5380  -10.4960  -11.5750 N.3   219  GLY219     -0.1210
     95  CA        -4.3870  -10.3010  -13.0070 C.3   219  GLY219      0.1956
     96  C         -5.6200  -10.8720  -13.6860 C.2   219  GLY219      0.2612
     97  O         -6.7260  -10.3770  -13.4550 O.2   219  GLY219     -0.2717
     98  N         -5.4450  -11.9000  -14.5170 N.am  220  GLU220     -0.1965
     99  CA        -6.5850  -12.5200  -15.1890 C.3   220  GLU220      0.1733
    100  C         -7.3880  -13.3810  -14.2210 C.2   220  GLU220      0.2616
    101  O         -8.5920  -13.5430  -14.3880 O.2   220  GLU220     -0.2715
    102  CB        -6.1250  -13.3180  -16.4200 C.3   220  GLU220      0.0429
    103  CG        -5.6980  -12.3800  -17.5480 C.3   220  GLU220      0.1163
    104  CD        -5.3690  -13.0740  -18.8620 C.2   220  GLU220      0.3649
    105  OE1       -5.1140  -12.3500  -19.8480 O.co2 220  GLU220     -0.2457
    106  OE2       -5.3620  -14.3260  -18.9290 O.co2 220  GLU220     -0.2457
    107  N         -6.7190  -13.9320  -13.2140 N.am  221  GLN221     -0.1977
    108  CA        -7.3920  -14.7120  -12.1790 C.3   221  GLN221      0.1601
    109  C         -7.5490  -13.7380  -11.0160 C.2   221  GLN221      0.2287
    110  O         -6.7770  -12.7860  -10.8910 O.2   221  GLN221     -0.2864
    111  CB        -6.5610  -15.9250  -11.7560 C.3   221  GLN221      0.0394
    112  CG        -6.7060  -17.1570  -12.6520 C.3   221  GLN221      0.0908
    113  CD        -6.3920  -16.8810  -14.1070 C.2   221  GLN221      0.2608
    114  OE1       -7.1970  -16.2950  -14.8340 O.2   221  GLN221     -0.2717
    115  NE2       -5.2080  -17.2880  -14.5380 N.am  221  GLN221     -0.0878
@<TRIPOS>BOND
     1   105   104   ar
     2    64    63   ar
     3   106   104   ar
     4   104   103    1
     5    62    63    1
     6    62    59    1
     7    61    60    2
     8    63    65   ar
     9    59    60    1
    10    59    58    1
    11    60    66   am
    12   103   102    1
    13    66    67    1
    14    67    70    1
    15    67    68    1
    16   102    99    1
    17    70    71    1
    18    69    68    2
    19    68    72   am
    20    99    98    1
    21    99   100    1
    22   114   113    2
    23   115   113   am
    24    98    96   am
    25   101   100    2
    26   100   107   am
    27    72    73    1
    28    57    54    1
    29   113   112    1
    30    56    55    2
    31    55    54    1
    32    96    97    2
    33    96    95    1
    34    92    93   ar
    35    92    90   ar
    36    54    53    1
    37   107   108    1
    38    52    51   ar
    39    52    50   ar
    40    95    94    1
    41    73    74    1
    42    73    76    1
    43    74    75    2
    44    40    39    1
    45    93    91   ar
    46    51    49   ar
    47    79    77   am
    48    90    87   ar
    49     8     6   am
    50   112   111    1
    51   108   111    1
    52   108   109    1
    53    80    81    1
    54    50    48   ar
    55    22    23    1
    56    25    24    2
    57    39    41    1
    58    39    38    1
    59    24    23    1
    60    24    26   am
    61    76    77    1
    62    77    78    2
    63    91    89   ar
    64     6     7    2
    65     6     5    1
    66    27    26    1
    67    27    28    1
    68    49    47   ar
    69    87    89   ar
    70    87    85   ar
    71    30    28   am
    72    30    31    1
    73   109   110    2
    74    81    84    1
    75    81    82    1
    76    89    88   ar
    77    48    47   ar
    78    38    35    1
    79    28    29    2
    80    84    85    1
    81    47    46    1
    82    85    86   ar
    83    31    32    1
    84     5     2    1
    85    21    19   ar
    86    34    32   am
    87    34    35    1
    88    20    19   ar
    89    32    33    2
    90    82    83    2
    91    35    36    1
    92    19    18    1
    93    88    86   ar
    94     4     3    2
    95    13    10    1
    96    46    43    1
    97     1     2    1
    98     2     3    1
    99    44    45    2
   100    44    43    1
   101    36    37    2
   102    43    42    1
   103    18    15    1
   104    10     9    1
   105    10    11    1
   106    11    12    2
   107    11    14   am
   108    15    14    1
   109    15    16    1
   110    16    17    2
