@<TRIPOS>MOLECULE
tmp/2phtA00.pdb
 117 111 0 0 0
SMALL
GASTEIGER

@<TRIPOS>ATOM
      1  N         10.3180   38.6110   20.2440 N.3    44  SER44      -0.1217
      2  CA         9.3200   38.5100   19.1820 C.3    44  SER44       0.1889
      3  C          9.4600   37.2630   18.3200 C.2    44  SER44       0.2288
      4  O          9.6770   37.3530   17.1110 O.2    44  SER44      -0.2866
      5  CB         9.3860   39.7530   18.2860 C.3    44  SER44       0.2089
      6  OG         9.1660   40.9370   19.0320 O.3    44  SER44      -0.2183
      7  N          7.8700   33.0540   17.7540 N.3    46  VAL46      -0.1245
      8  CA         6.8690   32.0370   18.0480 C.3    46  VAL46       0.1561
      9  C          7.1880   30.7830   17.2480 C.2    46  VAL46       0.2260
     10  O          7.6780   30.8630   16.1200 O.2    46  VAL46      -0.2867
     11  CB         5.4450   32.5120   17.6760 C.3    46  VAL46       0.0252
     12  CG1        4.4340   31.4060   17.9540 C.3    46  VAL46       0.0019
     13  CG2        5.0870   33.7550   18.4730 C.3    46  VAL46       0.0019
     14  N         10.4340   35.2530   29.2150 N.3    84  ALA84      -0.1231
     15  CA         9.0690   35.0460   28.7480 C.3    84  ALA84       0.1694
     16  C          9.0720   34.2980   27.4110 C.2    84  ALA84       0.2592
     17  O         10.1080   34.2250   26.7510 O.2    84  ALA84      -0.2718
     18  CB         8.3700   36.3930   28.6040 C.3    84  ALA84       0.0304
     19  N          7.9250   33.7600   26.9960 N.am   85  ASP85      -0.1974
     20  CA         6.6620   33.8420   27.7350 C.3    85  ASP85       0.1709
     21  C          6.2050   32.5090   28.3000 C.2    85  ASP85       0.2293
     22  O          5.3860   32.4570   29.2290 O.2    85  ASP85      -0.2864
     23  CB         5.5740   34.3870   26.8190 C.3    85  ASP85       0.1436
     24  CG         5.5510   35.8910   26.7880 C.2    85  ASP85       0.3671
     25  OD1        4.9600   36.4760   27.7240 O.co2  85  ASP85      -0.2456
     26  OD2        6.1340   36.4830   25.8510 O.co2  85  ASP85      -0.2456
     27  N         -1.1010   37.1760   15.2370 N.3   101  GLY101     -0.1225
     28  CA        -0.9610   37.9440   16.4650 C.3   101  GLY101      0.1811
     29  C         -1.0270   37.1360   17.7520 C.2   101  GLY101      0.2280
     30  O         -1.3690   37.6750   18.8060 O.2   101  GLY101     -0.2866
     31  N          1.4330   35.9660   19.3590 N.3   103  GLY103     -0.1210
     32  CA         2.7350   36.0160   20.0030 C.3   103  GLY103      0.1956
     33  C          2.7080   36.3670   21.4810 C.2   103  GLY103      0.2612
     34  O          1.6450   36.5230   22.0810 O.2   103  GLY103     -0.2717
     35  N          3.8950   36.4860   22.0670 N.am  104  GLY104     -0.1942
     36  CA         4.0110   36.8260   23.4710 C.3   104  GLY104      0.2014
     37  C          3.1400   36.0200   24.4170 C.2   104  GLY104      0.2639
     38  O          3.1320   34.7870   24.3880 O.2   104  GLY104     -0.2714
     39  N          2.4030   36.7380   25.2570 N.am  105  GLY105     -0.1954
     40  CA         1.5310   36.1210   26.2380 C.3   105  GLY105      0.1869
     41  C          0.4710   35.1670   25.7200 C.2   105  GLY105      0.2309
     42  O         -0.0940   34.4010   26.5010 O.2   105  GLY105     -0.2863
     43  N          5.6790   34.5320   32.5010 N.3   131  PHE131     -0.1241
     44  CA         5.4840   35.9790   32.4760 C.3   131  PHE131      0.1605
     45  C          4.0360   36.2960   32.8280 C.2   131  PHE131      0.2264
     46  O          3.1070   35.7650   32.2170 O.2   131  PHE131     -0.2867
     47  CB         5.8130   36.5330   31.0930 C.3   131  PHE131      0.0534
     48  CG         5.9660   38.0200   31.0650 C.ar  131  PHE131     -0.0203
     49  CD1        7.1080   38.6200   31.5850 C.ar  131  PHE131     -0.0042
     50  CD2        4.9560   38.8280   30.5560 C.ar  131  PHE131     -0.0042
     51  CE1        7.2450   40.0070   31.5990 C.ar  131  PHE131     -0.0003
     52  CE2        5.0800   40.2160   30.5670 C.ar  131  PHE131     -0.0003
     53  CZ         6.2280   40.8050   31.0900 C.ar  131  PHE131     -0.0000
     54  N         -0.4230   44.2450   33.0930 N.3   135  ASP135     -0.1225
     55  CA        -0.8220   45.2120   32.0800 C.3   135  ASP135      0.1805
     56  C         -1.0190   44.5340   30.7280 C.2   135  ASP135      0.2598
     57  O         -1.9140   44.9090   29.9650 O.2   135  ASP135     -0.2718
     58  CB         0.2160   46.3320   31.9620 C.3   135  ASP135      0.1424
     59  CG         1.5870   45.8140   31.6070 C.2   135  ASP135      0.3668
     60  OD1        2.1080   44.9620   32.3570 O.co2 135  ASP135     -0.2456
     61  OD2        2.1460   46.2570   30.5840 O.co2 135  ASP135     -0.2456
     62  N         -0.1920   43.5320   30.4370 N.am  136  SER136     -0.1938
     63  CA        -0.2840   42.8040   29.1710 C.3   136  SER136      0.2055
     64  C         -0.9220   41.4180   29.3140 C.2   136  SER136      0.2643
     65  O         -1.6750   40.9860   28.4440 O.2   136  SER136     -0.2714
     66  CB         1.1020   42.6720   28.5370 C.3   136  SER136      0.2130
     67  OG         2.0150   42.0740   29.4330 O.3   136  SER136     -0.2179
     68  N         -0.6190   40.7190   30.4010 N.am  137  ASN137     -0.1971
     69  CA        -1.1970   39.3930   30.6280 C.3   137  ASN137      0.1688
     70  C         -2.2520   39.5040   31.7250 C.2   137  ASN137      0.2292
     71  O         -2.1360   38.8860   32.7840 O.2   137  ASN137     -0.2864
     72  CB        -0.1240   38.3790   31.0470 C.3   137  ASN137      0.1181
     73  CG         0.9160   38.1280   29.9630 C.2   137  ASN137      0.2629
     74  OD1        1.3880   37.0020   29.8010 O.2   137  ASN137     -0.2716
     75  ND2        1.2980   39.1740   29.2340 N.am  137  ASN137     -0.0877
     76  N         -5.0070   38.2230   32.1380 N.3   139  TRP139     -0.1241
     77  CA        -5.6660   36.9660   32.4900 C.3   139  TRP139      0.1605
     78  C         -4.8990   36.0760   33.4720 C.2   139  TRP139      0.2264
     79  O         -5.4700   35.1420   34.0270 O.2   139  TRP139     -0.2867
     80  CB        -5.9410   36.1840   31.2040 C.3   139  TRP139      0.0550
     81  CG        -4.6960   35.9890   30.4050 C.ar  139  TRP139      0.0003
     82  CD1       -3.6790   35.1120   30.6660 C.ar  139  TRP139      0.0946
     83  CD2       -4.2640   36.7860   29.2970 C.ar  139  TRP139      0.0152
     84  NE1       -2.6390   35.3190   29.7930 N.ar  139  TRP139     -0.2442
     85  CE2       -2.9710   36.3410   28.9400 C.ar  139  TRP139      0.0810
     86  CE3       -4.8420   37.8360   28.5710 C.ar  139  TRP139      0.0012
     87  CZ2       -2.2450   36.9120   27.8890 C.ar  139  TRP139      0.0191
     88  CZ3       -4.1180   38.4040   27.5270 C.ar  139  TRP139      0.0001
     89  CH2       -2.8330   37.9390   27.1970 C.ar  139  TRP139      0.0015
     90  N          8.0090   34.2300   22.7280 N.3   218  SER218     -0.1202
     91  CA         8.6810   35.2660   23.5010 C.3   218  SER218      0.2020
     92  C          8.2790   36.5860   22.8590 C.2   218  SER218      0.2619
     93  O          8.3810   36.7490   21.6390 O.2   218  SER218     -0.2717
     94  CB        10.2050   35.1160   23.4490 C.3   218  SER218      0.2103
     95  OG        10.6640   34.0170   24.2180 O.3   218  SER218     -0.2182
     96  N          7.7920   37.5100   23.6760 N.am  219  GLY219     -0.1942
     97  CA         7.3960   38.8060   23.1650 C.3   219  GLY219      0.2014
     98  C          8.5600   39.7490   23.3770 C.2   219  GLY219      0.2639
     99  O          9.6450   39.5350   22.8260 O.2   219  GLY219     -0.2714
    100  N          8.3530   40.7840   24.1850 N.am  220  GLU220     -0.1963
    101  CA         9.4210   41.7360   24.4560 C.3   220  GLU220      0.1733
    102  C         10.4640   41.1110   25.3780 C.2   220  GLU220      0.2616
    103  O         11.6540   41.4090   25.2700 O.2   220  GLU220     -0.2715
    104  CB         8.8580   43.0140   25.0750 C.3   220  GLU220      0.0429
    105  CG         9.9150   44.0790   25.2990 C.3   220  GLU220      0.1163
    106  CD         9.3240   45.3970   25.7520 C.2   220  GLU220      0.3649
    107  OE1        8.7000   45.4320   26.8360 O.co2 220  GLU220     -0.2457
    108  OE2        9.4830   46.3950   25.0170 O.co2 220  GLU220     -0.2457
    109  N         10.0140   40.2560   26.2910 N.am  221  GLN221     -0.1977
    110  CA        10.9190   39.5550   27.2020 C.3   221  GLN221      0.1601
    111  C         11.1550   38.2070   26.5210 C.2   221  GLN221      0.2287
    112  O         10.2620   37.6980   25.8360 O.2   221  GLN221     -0.2864
    113  CB        10.2650   39.3360   28.5670 C.3   221  GLN221      0.0394
    114  CG         9.7600   40.5990   29.2480 C.3   221  GLN221      0.0908
    115  CD        10.8470   41.6290   29.4660 C.2   221  GLN221      0.2608
    116  OE1       11.3600   42.2190   28.5150 O.2   221  GLN221     -0.2717
    117  NE2       11.2100   41.8470   30.7260 N.am  221  GLN221     -0.0878
@<TRIPOS>BOND
     1    27    28    1
     2    10     9    2
     3    28    29    1
     4     4     3    2
     5     9     8    1
     6    11    12    1
     7    11     8    1
     8    11    13    1
     9    29    30    2
    10     7     8    1
    11     5     6    1
    12     5     2    1
    13     3     2    1
    14     2     1    1
    15    31    32    1
    16    32    33    1
    17    33    35   am
    18    33    34    2
    19    93    92    2
    20    35    36    1
    21    90    91    1
    22    99    98    2
    23    92    91    1
    24    92    96   am
    25    97    98    1
    26    97    96    1
    27    98   100   am
    28    94    91    1
    29    94    95    1
    30    36    37    1
    31   100   101    1
    32    38    37    2
    33    37    39   am
    34   101   104    1
    35   101   102    1
    36   108   106   ar
    37   104   105    1
    38    39    40    1
    39   103   102    2
    40   105   106    1
    41   102   109   am
    42    41    40    1
    43    41    42    2
    44   106   107   ar
    45   112   111    2
    46    26    24   ar
    47   109   110    1
    48   111   110    1
    49    17    16    2
    50    24    23    1
    51    24    25   ar
    52    23    20    1
    53    19    16   am
    54    19    20    1
    55    89    88   ar
    56    89    87   ar
    57   110   113    1
    58    16    15    1
    59    88    86   ar
    60    20    21    1
    61    87    85   ar
    62    21    22    2
    63    65    64    2
    64   116   115    2
    65    66    63    1
    66    66    67    1
    67   113   114    1
    68    86    83   ar
    69    18    15    1
    70    15    14    1
    71    85    83   ar
    72    85    84   ar
    73    63    64    1
    74    63    62    1
    75    75    73   am
    76   114   115    1
    77    83    81   ar
    78    64    68   am
    79   115   117   am
    80    84    82   ar
    81    74    73    2
    82    73    72    1
    83    57    56    2
    84    68    69    1
    85    81    82   ar
    86    81    80    1
    87    62    56   am
    88    50    52   ar
    89    50    48   ar
    90    52    53   ar
    91    61    59   ar
    92    69    72    1
    93    69    70    1
    94    56    55    1
    95    48    47    1
    96    48    49   ar
    97    53    51   ar
    98    47    44    1
    99    80    77    1
   100    49    51   ar
   101    59    58    1
   102    59    60   ar
   103    70    71    2
   104    58    55    1
   105    55    54    1
   106    76    77    1
   107    46    45    2
   108    44    43    1
   109    44    45    1
   110    77    78    1
   111    78    79    2
