@<TRIPOS>MOLECULE
tmp/2phuB00.pdb
 131 124 0 0 0
SMALL
GASTEIGER

@<TRIPOS>ATOM
      1  N         -7.8090   -7.7610  -13.1010 N.3    44  SER44      -0.1217
      2  CA        -7.0440   -6.5420  -13.3470 C.3    44  SER44       0.1889
      3  C         -7.1690   -5.4670  -12.2810 C.2    44  SER44       0.2288
      4  O         -7.6670   -4.3700  -12.5520 O.2    44  SER44      -0.2866
      5  CB        -7.4390   -5.9400  -14.6960 C.3    44  SER44       0.2089
      6  OG        -7.1500   -6.8450  -15.7390 O.3    44  SER44      -0.2183
      7  N         -8.5920  -21.2700   -8.9590 N.3    82  ASN82      -0.1240
      8  CA        -7.2330  -20.7430   -8.9870 C.3    82  ASN82       0.1653
      9  C         -7.1520  -19.2390   -8.7260 C.2    82  ASN82       0.2266
     10  O         -6.6320  -18.4810   -9.5450 O.2    82  ASN82      -0.2867
     11  CB        -6.5890  -21.0960  -10.3380 C.3    82  ASN82       0.1155
     12  CG        -7.4420  -20.6600  -11.5320 C.2    82  ASN82       0.2627
     13  OD1       -8.6300  -20.3440  -11.3860 O.2    82  ASN82      -0.2716
     14  ND2       -6.8450  -20.6730  -12.7250 N.am   82  ASN82      -0.0877
     15  N         -6.0530  -15.6320   -7.6660 N.3    84  ALA84      -0.1231
     16  CA        -4.7480  -14.9820   -7.7670 C.3    84  ALA84       0.1694
     17  C         -4.8780  -13.5090   -7.3890 C.2    84  ALA84       0.2592
     18  O         -5.9920  -12.9850   -7.3460 O.2    84  ALA84      -0.2718
     19  CB        -4.2270  -15.1130   -9.1950 C.3    84  ALA84       0.0304
     20  N         -3.7640  -12.8170   -7.1440 N.am   85  ASP85      -0.1974
     21  CA        -2.4090  -13.3570   -7.2120 C.3    85  ASP85       0.1709
     22  C         -1.7240  -13.4950   -5.8610 C.2    85  ASP85       0.2293
     23  O         -0.7630  -14.2490   -5.7220 O.2    85  ASP85      -0.2864
     24  CB        -1.5620  -12.4680   -8.1220 C.3    85  ASP85       0.1436
     25  CG        -1.7320  -12.8160   -9.5820 C.2    85  ASP85       0.3671
     26  OD1       -1.0510  -13.7560  -10.0360 O.co2  85  ASP85      -0.2456
     27  OD2       -2.5600  -12.1770  -10.2620 O.co2  85  ASP85      -0.2456
     28  N          2.6970   -1.2750  -14.5880 N.3   101  GLY101     -0.1225
     29  CA         2.6810   -2.6620  -15.0310 C.3   101  GLY101      0.1811
     30  C          3.0310   -3.7020  -13.9780 C.2   101  GLY101      0.2280
     31  O          3.4080   -4.8270  -14.3040 O.2   101  GLY101     -0.2866
     32  N          1.0510   -5.2570  -12.0460 N.3   103  GLY103     -0.1210
     33  CA        -0.0940   -6.0870  -11.7170 C.3   103  GLY103      0.1956
     34  C          0.1580   -7.5830  -11.7330 C.2   103  GLY103      0.2612
     35  O          1.2940   -8.0380  -11.8850 O.2   103  GLY103     -0.2717
     36  N         -0.9160   -8.3500  -11.5620 N.am  104  GLY104     -0.1942
     37  CA        -0.8180   -9.8000  -11.5760 C.3   104  GLY104      0.2014
     38  C          0.2410  -10.3880  -10.6640 C.2   104  GLY104      0.2639
     39  O          0.3310  -10.0380   -9.4900 O.2   104  GLY104     -0.2714
     40  N          1.0470  -11.2850  -11.2180 N.am  105  GLY105     -0.1939
     41  CA         2.0950  -11.9360  -10.4510 C.3   105  GLY105      0.2014
     42  C          3.1630  -11.0410   -9.8450 C.2   105  GLY105      0.2638
     43  O          3.9440  -11.5030   -9.0150 O.2   105  GLY105     -0.2714
     44  N          3.2190   -9.7740  -10.2470 N.am  106  LEU106     -0.1977
     45  CA         4.2210   -8.8740   -9.6850 C.3   106  LEU106      0.1596
     46  C          3.7430   -8.2400   -8.3800 C.2   106  LEU106      0.2287
     47  O          4.4540   -7.4410   -7.7650 O.2   106  LEU106     -0.2864
     48  CB         4.6200   -7.8020  -10.7020 C.3   106  LEU106      0.0297
     49  CG         5.2790   -8.3820  -11.9620 C.3   106  LEU106      0.0022
     50  CD1        5.7920   -7.2480  -12.8370 C.3   106  LEU106      0.0001
     51  CD2        6.4320   -9.3090  -11.5690 C.3   106  LEU106      0.0001
     52  N         -0.8600  -17.9200   -6.8370 N.3   131  PHE131     -0.1241
     53  CA        -0.8450  -18.2510   -8.2630 C.3   131  PHE131      0.1605
     54  C          0.5890  -18.5510   -8.6940 C.2   131  PHE131      0.2264
     55  O          1.4700  -17.6990   -8.5880 O.2   131  PHE131     -0.2867
     56  CB        -1.3890  -17.0820   -9.0800 C.3   131  PHE131      0.0534
     57  CG        -1.7360  -17.4490  -10.4920 C.ar  131  PHE131     -0.0203
     58  CD1       -2.8890  -18.1760  -10.7660 C.ar  131  PHE131     -0.0042
     59  CD2       -0.8920  -17.1050  -11.5430 C.ar  131  PHE131     -0.0042
     60  CE1       -3.2010  -18.5570  -12.0740 C.ar  131  PHE131     -0.0003
     61  CE2       -1.1940  -17.4830  -12.8550 C.ar  131  PHE131     -0.0003
     62  CZ        -2.3520  -18.2100  -13.1180 C.ar  131  PHE131     -0.0000
     63  N          1.3370  -20.5470  -11.8810 N.3   133  ALA133     -0.1245
     64  CA         1.4080  -21.0950  -13.2350 C.3   133  ALA133      0.1562
     65  C          2.8260  -20.8870  -13.7690 C.2   133  ALA133      0.2260
     66  O          3.2800  -19.7530  -13.9360 O.2   133  ALA133     -0.2867
     67  CB         0.3990  -20.4010  -14.1350 C.3   133  ALA133      0.0290
     68  N          4.0560  -20.9000  -16.5370 N.3   135  ASP135     -0.1225
     69  CA         4.2040  -20.2160  -17.8160 C.3   135  ASP135      0.1805
     70  C          4.1700  -18.6980  -17.6890 C.2   135  ASP135      0.2598
     71  O          4.7180  -17.9940  -18.5330 O.2   135  ASP135     -0.2718
     72  CB         3.1230  -20.6800  -18.8010 C.3   135  ASP135      0.1424
     73  CG         1.7140  -20.4710  -18.2700 C.2   135  ASP135      0.3668
     74  OD1        0.7510  -20.7580  -19.0120 O.co2 135  ASP135     -0.2456
     75  OD2        1.5650  -20.0280  -17.1120 O.co2 135  ASP135     -0.2456
     76  N          3.5270  -18.1890  -16.6420 N.am  136  SER136     -0.1938
     77  CA         3.4520  -16.7470  -16.4360 C.3   136  SER136      0.2055
     78  C          4.2570  -16.3180  -15.2110 C.2   136  SER136      0.2643
     79  O          4.8790  -15.2550  -15.2100 O.2   136  SER136     -0.2714
     80  CB         1.9870  -16.2960  -16.3160 C.3   136  SER136      0.2130
     81  OG         1.2920  -17.0220  -15.3190 O.3   136  SER136     -0.2179
     82  N          4.2440  -17.1380  -14.1640 N.am  137  ASN137     -0.1971
     83  CA         5.0130  -16.8290  -12.9620 C.3   137  ASN137      0.1688
     84  C          6.1970  -17.7880  -12.9450 C.2   137  ASN137      0.2292
     85  O          6.3430  -18.6160  -12.0460 O.2   137  ASN137     -0.2864
     86  CB         4.1600  -17.0010  -11.6950 C.3   137  ASN137      0.1181
     87  CG         3.0140  -16.0000  -11.6170 C.2   137  ASN137      0.2629
     88  OD1        2.6320  -15.5660  -10.5300 O.2   137  ASN137     -0.2716
     89  ND2        2.4470  -15.6420  -12.7690 N.am  137  ASN137     -0.0877
     90  N          9.1240  -17.5240  -12.1310 N.3   139  TRP139     -0.1241
     91  CA         9.9930  -17.4090  -10.9680 C.3   139  TRP139      0.1605
     92  C          9.5120  -18.1710   -9.7350 C.2   139  TRP139      0.2264
     93  O         10.2820  -18.3750   -8.8020 O.2   139  TRP139     -0.2867
     94  CB        10.1610  -15.9290  -10.6290 C.3   139  TRP139      0.0550
     95  CG         8.8450  -15.2510  -10.4200 C.ar  139  TRP139      0.0003
     96  CD1        8.0650  -15.2950   -9.2980 C.ar  139  TRP139      0.0946
     97  CD2        8.0950  -14.5270  -11.3980 C.ar  139  TRP139      0.0152
     98  NE1        6.8750  -14.6450   -9.5210 N.ar  139  TRP139     -0.2442
     99  CE2        6.8670  -14.1630  -10.8060 C.ar  139  TRP139      0.0810
    100  CE3        8.3420  -14.1510  -12.7260 C.ar  139  TRP139      0.0012
    101  CZ2        5.8860  -13.4420  -11.4900 C.ar  139  TRP139      0.0191
    102  CZ3        7.3640  -13.4330  -13.4080 C.ar  139  TRP139      0.0001
    103  CH2        6.1530  -13.0870  -12.7870 C.ar  139  TRP139      0.0015
    104  N         -4.4960   -8.7760   -8.6110 N.3   218  SER218     -0.1202
    105  CA        -5.1620   -9.8530   -9.3330 C.3   218  SER218      0.2020
    106  C         -5.0130   -9.5460  -10.8210 C.2   218  SER218      0.2619
    107  O         -5.2470   -8.4130  -11.2520 O.2   218  SER218     -0.2717
    108  CB        -6.6510   -9.9320   -8.9850 C.3   218  SER218      0.2103
    109  OG        -6.8600  -10.4000   -7.6660 O.3   218  SER218     -0.2182
    110  N         -4.6030  -10.5490  -11.5920 N.am  219  GLY219     -0.1942
    111  CA        -4.4600  -10.3700  -13.0220 C.3   219  GLY219      0.2014
    112  C         -5.6650  -10.9800  -13.7190 C.2   219  GLY219      0.2639
    113  O         -6.7880  -10.5090  -13.5330 O.2   219  GLY219     -0.2714
    114  N         -5.4470  -12.0300  -14.5080 N.am  220  GLU220     -0.1963
    115  CA        -6.5490  -12.6790  -15.2100 C.3   220  GLU220      0.1733
    116  C         -7.3910  -13.4820  -14.2300 C.2   220  GLU220      0.2616
    117  O         -8.6020  -13.5910  -14.3920 O.2   220  GLU220     -0.2715
    118  CB        -6.0310  -13.5850  -16.3310 C.3   220  GLU220      0.0429
    119  CG        -5.1710  -12.8560  -17.3440 C.3   220  GLU220      0.1163
    120  CD        -5.5170  -13.2190  -18.7780 C.2   220  GLU220      0.3649
    121  OE1       -5.5220  -14.4260  -19.1110 O.co2 220  GLU220     -0.2457
    122  OE2       -5.7810  -12.2890  -19.5720 O.co2 220  GLU220     -0.2457
    123  N         -6.7380  -14.0680  -13.2320 N.am  221  GLN221     -0.1977
    124  CA        -7.4420  -14.7990  -12.1850 C.3   221  GLN221      0.1601
    125  C         -7.5660  -13.8050  -11.0230 C.2   221  GLN221      0.2287
    126  O         -6.7550  -12.8830  -10.8880 O.2   221  GLN221     -0.2864
    127  CB        -6.6590  -16.0340  -11.7430 C.3   221  GLN221      0.0394
    128  CG        -6.7530  -17.2450  -12.6690 C.3   221  GLN221      0.0908
    129  CD        -6.3920  -16.9370  -14.1060 C.2   221  GLN221      0.2608
    130  OE1       -7.2600  -16.6360  -14.9270 O.2   221  GLN221     -0.2717
    131  NE2       -5.1030  -16.9900  -14.4130 N.am  221  GLN221     -0.0878
@<TRIPOS>BOND
     1   122   120   ar
     2   121   120   ar
     3    74    73   ar
     4    72    73    1
     5    72    69    1
     6   120   119    1
     7    71    70    2
     8    73    75   ar
     9    69    70    1
    10    69    68    1
    11    70    76   am
    12   119   118    1
    13    76    77    1
    14    77    80    1
    15    77    78    1
    16   118   115    1
    17    80    81    1
    18     6     5    1
    19    78    79    2
    20    78    82   am
    21   115   114    1
    22   115   116    1
    23    29    28    1
    24    29    30    1
    25   130   129    2
    26     5     2    1
    27   114   112   am
    28   131   129   am
    29   117   116    2
    30    31    30    2
    31   116   123   am
    32    82    83    1
    33    67    64    1
    34   129   128    1
    35    66    65    2
    36    65    64    1
    37   112   113    2
    38   112   111    1
    39   102   103   ar
    40   102   100   ar
    41     2     1    1
    42     2     3    1
    43    64    63    1
    44   123   124    1
    45    62    61   ar
    46    62    60   ar
    47   111   110    1
    48    83    84    1
    49    83    86    1
    50    84    85    2
    51    61    59   ar
    52    50    49    1
    53   103   101   ar
    54    89    87   am
    55   100    97   ar
    56    14    12   am
    57   128   127    1
    58     4     3    2
    59   124   127    1
    60   124   125    1
    61    90    91    1
    62    60    58   ar
    63    32    33    1
    64    49    51    1
    65    49    48    1
    66    35    34    2
    67    34    33    1
    68    34    36   am
    69    86    87    1
    70    87    88    2
    71   110   106   am
    72    37    36    1
    73    37    38    1
    74    59    57   ar
    75    12    13    2
    76    12    11    1
    77   101    99   ar
    78    97    99   ar
    79    97    95   ar
    80   107   106    2
    81    40    38   am
    82    40    41    1
    83   125   126    2
    84    91    94    1
    85    91    92    1
    86   106   105    1
    87    99    98   ar
    88    58    57   ar
    89    48    45    1
    90    38    39    2
    91    94    95    1
    92    57    56    1
    93    41    42    1
    94    95    96   ar
    95    11     8    1
    96    27    25   ar
    97    44    42   am
    98    44    45    1
    99    26    25   ar
   100    42    43    2
   101    92    93    2
   102    45    46    1
   103    25    24    1
   104    10     9    2
   105    98    96   ar
   106   105   108    1
   107   105   104    1
   108    19    16    1
   109    56    53    1
   110     8     7    1
   111     8     9    1
   112   108   109    1
   113    54    55    2
   114    54    53    1
   115    46    47    2
   116    53    52    1
   117    24    21    1
   118    16    15    1
   119    16    17    1
   120    17    18    2
   121    17    20   am
   122    21    20    1
   123    21    22    1
   124    22    23    2
