@<TRIPOS>MOLECULE
tmp/2pi4C01.pdb
 148 137 0 0 0
SMALL
GASTEIGER

@<TRIPOS>ATOM
      1  N        200.3220   40.1810   64.2190 N.3   402  ARG402     -0.1245
      2  CA       199.7500   41.4370   64.6530 C.3   402  ARG402      0.1563
      3  C        198.9200   41.3190   65.9490 C.2   402  ARG402      0.2260
      4  O        198.7820   42.2820   66.7020 O.2   402  ARG402     -0.2867
      5  CB       198.9290   41.9920   63.4840 C.3   402  ARG402      0.0307
      6  CG       199.6290   41.7580   62.1350 C.3   402  ARG402      0.0489
      7  CD       198.6700   41.2620   61.0820 C.3   402  ARG402      0.2205
      8  NE       197.9550   42.3510   60.4150 N.pl3 402  ARG402     -0.0865
      9  CZ       196.6470   42.3640   60.1440 C.cat 402  ARG402      0.5346
     10  NH1      195.8640   41.3410   60.4880 N.pl3 402  ARG402      0.1354
     11  NH2      196.1230   43.4060   59.5030 N.pl3 402  ARG402      0.1354
     12  N        195.5030   40.0880   66.1420 N.3   404  ARG404     -0.1245
     13  CA       194.1540   39.6000   65.8290 C.3   404  ARG404      0.1563
     14  C        193.9710   38.0780   66.0450 C.2   404  ARG404      0.2260
     15  O        194.8350   37.2700   65.6860 O.2   404  ARG404     -0.2867
     16  CB       193.7300   40.0080   64.4010 C.3   404  ARG404      0.0307
     17  CG       193.3360   41.5080   64.2250 C.3   404  ARG404      0.0489
     18  CD       192.2130   41.6800   63.1740 C.3   404  ARG404      0.2205
     19  NE       191.7620   43.0660   62.9960 N.pl3 404  ARG404     -0.0865
     20  CZ       190.9530   43.4720   62.0130 C.cat 404  ARG404      0.5346
     21  NH1      190.4970   42.5910   61.1230 N.pl3 404  ARG404      0.1354
     22  NH2      190.6440   44.7620   61.8930 N.pl3 404  ARG404      0.1354
     23  N        170.6690   48.7960   60.7740 N.3   450  ASP450     -0.1225
     24  CA       171.6930   49.2510   61.7110 C.3   450  ASP450      0.1805
     25  C        171.8770   50.7610   61.6190 C.2   450  ASP450      0.2597
     26  O        172.8220   51.3220   62.1840 O.2   450  ASP450     -0.2718
     27  CB       173.0240   48.5420   61.4170 C.3   450  ASP450      0.1424
     28  CG       172.9140   47.5440   60.2610 C.2   450  ASP450      0.3668
     29  OD1      172.5900   47.9600   59.1200 O.co2 450  ASP450     -0.2456
     30  OD2      173.1530   46.3410   60.4950 O.co2 450  ASP450     -0.2456
     31  N        170.9650   51.4070   60.8970 N.am  451  LYS451     -0.1979
     32  CA       171.0020   52.8500   60.7210 C.3   451  LYS451      0.1596
     33  C        169.7860   53.5200   61.3760 C.2   451  LYS451      0.2287
     34  O        168.9170   54.0690   60.6920 O.2   451  LYS451     -0.2864
     35  CB       171.0800   53.2010   59.2170 C.3   451  LYS451      0.0298
     36  CG       170.0750   52.4740   58.3040 C.3   451  LYS451      0.0038
     37  CD       170.7820   51.5330   57.3200 C.3   451  LYS451      0.0206
     38  CE       171.7540   52.2810   56.4040 C.3   451  LYS451      0.1093
     39  NZ       172.5380   51.3660   55.5240 N.3   451  LYS451     -0.1314
     40  N        179.0770   44.9280   66.4730 N.3   516  ASP516     -0.1239
     41  CA       180.1250   45.4710   65.6190 C.3   516  ASP516      0.1674
     42  C        180.0910   47.0150   65.5790 C.2   516  ASP516      0.2266
     43  O        179.0400   47.6190   65.3190 O.2   516  ASP516     -0.2867
     44  CB       179.9720   44.8890   64.2070 C.3   516  ASP516      0.1410
     45  CG       181.3090   44.4460   63.6010 C.2   516  ASP516      0.3668
     46  OD1      182.0660   43.7340   64.3030 O.co2 516  ASP516     -0.2456
     47  OD2      181.5940   44.7970   62.4250 O.co2 516  ASP516     -0.2456
     48  N        181.3010   50.9710   64.2670 N.3   518  SER518     -0.1217
     49  CA       180.9580   51.6980   63.0250 C.3   518  SER518      0.1889
     50  C        182.1100   51.6540   62.0130 C.2   518  SER518      0.2288
     51  O        181.8870   51.5990   60.7970 O.2   518  SER518     -0.2866
     52  CB       180.6010   53.1670   63.3320 C.3   518  SER518      0.2089
     53  OG       180.1140   53.8560   62.1790 O.3   518  SER518     -0.2183
     54  N        186.0370   50.2400   62.8370 N.3   520  SER520     -0.1217
     55  CA       187.1930   49.9080   63.6610 C.3   520  SER520      0.1889
     56  C        188.4080   50.6640   63.1840 C.2   520  SER520      0.2288
     57  O        188.3950   51.2920   62.1180 O.2   520  SER520     -0.2866
     58  CB       187.4970   48.3980   63.6200 C.3   520  SER520      0.2089
     59  OG       188.5980   48.0510   64.4540 O.3   520  SER520     -0.2183
     60  N        176.5140   57.7470   60.1300 N.3   548  ASP548     -0.1239
     61  CA       177.0450   56.9190   59.0500 C.3   548  ASP548      0.1674
     62  C        178.2340   57.6170   58.4050 C.2   548  ASP548      0.2266
     63  O        178.0690   58.3650   57.4470 O.2   548  ASP548     -0.2867
     64  CB       175.9540   56.6730   57.9910 C.3   548  ASP548      0.1410
     65  CG       176.3550   55.6380   56.9540 C.2   548  ASP548      0.3668
     66  OD1      176.6600   54.4940   57.3450 O.co2 548  ASP548     -0.2456
     67  OD2      176.3550   55.9590   55.7500 O.co2 548  ASP548     -0.2456
     68  N        180.2250   56.7450   56.3460 N.3   550  TYR550     -0.1241
     69  CA       180.2320   56.6280   54.9020 C.3   550  TYR550      0.1605
     70  C        179.2580   57.6240   54.2900 C.2   550  TYR550      0.2264
     71  O        179.5630   58.2590   53.2870 O.2   550  TYR550     -0.2867
     72  CB       179.8630   55.2090   54.4670 C.3   550  TYR550      0.0534
     73  CG       180.7020   54.1440   55.1190 C.ar  550  TYR550     -0.0201
     74  CD1      182.0930   54.2580   55.1580 C.ar  550  TYR550     -0.0009
     75  CD2      180.1050   53.0520   55.7540 C.ar  550  TYR550     -0.0009
     76  CE1      182.8750   53.3190   55.8260 C.ar  550  TYR550      0.0417
     77  CE2      180.8750   52.0990   56.4280 C.ar  550  TYR550      0.0417
     78  CZ       182.2670   52.2420   56.4670 C.ar  550  TYR550      0.1957
     79  OH       183.0480   51.3480   57.1810 O.3   550  TYR550     -0.2866
     80  N        175.9620   56.7810   49.8030 N.3   606  ARG606     -0.1245
     81  CA       176.9070   56.1760   50.7440 C.3   606  ARG606      0.1563
     82  C        177.6790   55.0870   50.0160 C.2   606  ARG606      0.2260
     83  O        178.8350   54.7900   50.3310 O.2   606  ARG606     -0.2867
     84  CB       176.1380   55.5770   51.9440 C.3   606  ARG606      0.0307
     85  CG       175.0510   54.5280   51.5560 C.3   606  ARG606      0.0489
     86  CD       173.9510   54.2420   52.6290 C.3   606  ARG606      0.2205
     87  NE       174.4490   53.7490   53.9210 N.pl3 606  ARG606     -0.0865
     88  CZ       175.0850   52.5900   54.1370 C.cat 606  ARG606      0.5346
     89  NH1      175.3370   51.7380   53.1530 N.pl3 606  ARG606      0.1354
     90  NH2      175.4730   52.2740   55.3660 N.pl3 606  ARG606      0.1354
     91  N        182.1600   54.4160   50.0470 N.3   610  LYS610     -0.1231
     92  CA       182.1700   53.3690   51.0430 C.3   610  LYS610      0.1693
     93  C        183.5750   52.8200   51.2340 C.2   610  LYS610      0.2591
     94  O        184.3240   53.2830   52.0840 O.2   610  LYS610     -0.2718
     95  CB       181.2300   52.2410   50.6130 C.3   610  LYS610      0.0285
     96  CG       180.6820   51.3540   51.7410 C.3   610  LYS610      0.0035
     97  CD       181.7600   50.8040   52.6730 C.3   610  LYS610      0.0206
     98  CE       181.2990   49.5650   53.4710 C.3   610  LYS610      0.1093
     99  NZ       181.0280   48.3170   52.6650 N.3   610  LYS610     -0.1314
    100  N        183.9190   51.8310   50.4200 N.am  611  ARG611     -0.1980
    101  CA       185.2060   51.1740   50.5120 C.3   611  ARG611      0.1597
    102  C        186.3350   52.1490   50.7240 C.2   611  ARG611      0.2287
    103  O        187.1570   51.9840   51.6070 O.2   611  ARG611     -0.2864
    104  CB       185.4720   50.3720   49.2470 C.3   611  ARG611      0.0334
    105  CG       184.2700   49.5940   48.7860 C.3   611  ARG611      0.0492
    106  CD       184.5590   48.1090   48.6060 C.3   611  ARG611      0.2205
    107  NE       184.7320   47.3860   49.8670 N.pl3 611  ARG611     -0.0865
    108  CZ       185.8950   47.2300   50.4930 C.cat 611  ARG611      0.5346
    109  NH1      187.0120   47.7500   49.9840 N.pl3 611  ARG611      0.1354
    110  NH2      185.9440   46.5330   51.6220 N.pl3 611  ARG611      0.1354
    111  N        186.8900   52.9840   54.7190 N.3   614  MET614     -0.1245
    112  CA       187.4850   52.0220   55.6280 C.3   614  MET614      0.1570
    113  C        188.9190   51.7910   55.2370 C.2   614  MET614      0.2261
    114  O        189.8440   51.8610   56.0650 O.2   614  MET614     -0.2867
    115  CB       186.7120   50.7050   55.5550 C.3   614  MET614      0.0387
    116  CG       186.3040   50.2760   54.1430 C.3   614  MET614      0.0595
    117  SD       184.4770   49.9580   53.9570 S.3   614  MET614     -0.1393
    118  CE       184.3640   48.1070   53.7680 C.3   614  MET614      0.0692
    119  N        193.8530   51.1730   56.0240 N.3   618  TYR618     -0.1241
    120  CA       194.8730   50.2870   55.4370 C.3   618  TYR618      0.1605
    121  C        195.8630   51.0320   54.5770 C.2   618  TYR618      0.2264
    122  O        196.8980   50.4880   54.1970 O.2   618  TYR618     -0.2867
    123  CB       194.2260   49.2310   54.5550 C.3   618  TYR618      0.0534
    124  CG       193.0740   48.5790   55.2120 C.ar  618  TYR618     -0.0201
    125  CD1      193.1840   48.1170   56.5150 C.ar  618  TYR618     -0.0009
    126  CD2      191.8470   48.4680   54.5610 C.ar  618  TYR618     -0.0009
    127  CE1      192.0990   47.5700   57.1680 C.ar  618  TYR618      0.0417
    128  CE2      190.7510   47.9170   55.2080 C.ar  618  TYR618      0.0417
    129  CZ       190.8890   47.4780   56.5190 C.ar  618  TYR618      0.1957
    130  OH       189.8180   47.0060   57.2270 O.3   618  TYR618     -0.2866
    131  N        195.0310   47.3000   63.4980 N.3   763  HIS763     -0.1241
    132  CA       194.4810   46.0140   63.8560 C.3   763  HIS763      0.1621
    133  C        195.1670   45.6250   65.1420 C.2   763  HIS763      0.2264
    134  O        194.5000   45.2390   66.1070 O.2   763  HIS763     -0.2867
    135  CB       194.7400   44.9820   62.7530 C.3   763  HIS763      0.0745
    136  CG       194.0510   45.2830   61.4530 C.ar  763  HIS763      0.0817
    137  ND1      193.9160   46.5620   60.9590 N.ar  763  HIS763     -0.2268
    138  CD2      193.5350   44.4640   60.5070 C.ar  763  HIS763      0.1154
    139  CE1      193.3500   46.5190   59.7680 C.ar  763  HIS763      0.1986
    140  NE2      193.1090   45.2570   59.4690 N.ar  763  HIS763     -0.2212
    141  N        186.3000   42.2770   65.7100 N.3   791  ASP791     -0.1239
    142  CA       185.6290   43.4870   66.1670 C.3   791  ASP791      0.1674
    143  C        184.1480   43.2190   66.4060 C.2   791  ASP791      0.2266
    144  O        183.3650   44.1420   66.6740 O.2   791  ASP791     -0.2867
    145  CB       185.7590   44.5810   65.1120 C.3   791  ASP791      0.1410
    146  CG       185.1290   44.1850   63.7650 C.2   791  ASP791      0.3668
    147  OD1      185.1990   44.9970   62.8140 O.co2 791  ASP791     -0.2456
    148  OD2      184.5660   43.0670   63.6510 O.co2 791  ASP791     -0.2456
@<TRIPOS>BOND
     1   106   105    1
     2   106   107    1
     3   105   104    1
     4   104   101    1
     5    80    81    1
     6   107   108    2
     7   109   108    1
     8    82    83    2
     9    82    81    1
    10    91    92    1
    11   100   101    1
    12   100    93   am
    13   108   110    1
    14   101   102    1
    15    95    92    1
    16    95    96    1
    17   102   103    2
    18    81    84    1
    19    92    93    1
    20    93    94    2
    21    85    84    1
    22    85    86    1
    23    96    97    1
    24    86    87    1
    25    99    98    1
    26    97    98    1
    27    89    88    1
    28    71    70    2
    29   118   117    1
    30    87    88    2
    31   117   116    1
    32    88    90    1
    33   116   115    1
    34   122   121    2
    35    70    69    1
    36    72    69    1
    37    72    73    1
    38   123   124    1
    39   123   120    1
    40   126   128   ar
    41   126   124   ar
    42   121   120    1
    43   111   112    1
    44    69    68    1
    45    73    74   ar
    46    73    75   ar
    47    74    76   ar
    48   128   129   ar
    49   124   125   ar
    50   113   112    1
    51   113   114    2
    52   120   119    1
    53    39    38    1
    54   115   112    1
    55    67    65   ar
    56    75    77   ar
    57    76    78   ar
    58    38    37    1
    59    77    78   ar
    60    78    79    1
    61   125   127   ar
    62   129   127   ar
    63   129   130    1
    64    65    66   ar
    65    65    64    1
    66    37    36    1
    67    63    62    2
    68    64    61    1
    69    36    35    1
    70    62    61    1
    71    61    60    1
    72    29    28   ar
    73    35    32    1
    74   140   139   ar
    75   140   138   ar
    76    11     9    1
    77   139   137   ar
    78     9     8    2
    79     9    10    1
    80    28    30   ar
    81    28    27    1
    82     8     7    1
    83   138   136   ar
    84    34    33    2
    85    32    31    1
    86    32    33    1
    87    23    24    1
    88    51    50    2
    89    31    25   am
    90   137   136   ar
    91     7     6    1
    92    21    20    1
    93    27    24    1
    94   136   135    1
    95    25    24    1
    96    25    26    2
    97    22    20    1
    98    20    19    2
    99    50    49    1
   100    57    56    2
   101     6     5    1
   102    53    52    1
   103    47    45   ar
   104   135   132    1
   105   147   146   ar
   106    54    55    1
   107    19    18    1
   108    49    52    1
   109    49    48    1
   110    18    17    1
   111    56    55    1
   112     5     2    1
   113   131   132    1
   114    45    44    1
   115    45    46   ar
   116    58    55    1
   117    58    59    1
   118   148   146   ar
   119   146   145    1
   120   132   133    1
   121    44    41    1
   122     1     2    1
   123    17    16    1
   124    16    13    1
   125     2     3    1
   126   145   142    1
   127   133   134    2
   128    43    42    2
   129    42    41    1
   130    41    40    1
   131    15    14    2
   132   141   142    1
   133    13    14    1
   134    13    12    1
   135     3     4    2
   136   142   143    1
   137   143   144    2
