@<TRIPOS>MOLECULE
tmp/2pi4C00.pdb
 125 119 0 0 0
SMALL
GASTEIGER

@<TRIPOS>ATOM
      1  N        173.2230   34.6360   47.1810 N.3   330  ASP330     -0.1239
      2  CA       174.5610   34.5400   47.7230 C.3   330  ASP330      0.1674
      3  C        174.9930   33.0930   47.6640 C.2   330  ASP330      0.2266
      4  O        176.0690   32.7180   48.1290 O.2   330  ASP330     -0.2867
      5  CB       174.5120   35.0010   49.1560 C.3   330  ASP330      0.1410
      6  CG       173.5210   36.1210   49.3500 C.2   330  ASP330      0.3668
      7  OD1      172.3310   35.9470   48.9700 O.co2 330  ASP330     -0.2456
      8  OD2      173.9360   37.1740   49.8790 O.co2 330  ASP330     -0.2456
      9  N        182.8470   29.2820   45.5160 N.3   373  ARG373     -0.1245
     10  CA       181.8700   29.5470   46.5630 C.3   373  ARG373      0.1563
     11  C        181.0090   28.3240   46.8250 C.2   373  ARG373      0.2260
     12  O        180.4810   28.1400   47.9240 O.2   373  ARG373     -0.2867
     13  CB       180.9980   30.7580   46.1740 C.3   373  ARG373      0.0307
     14  CG       179.9870   31.2040   47.2500 C.3   373  ARG373      0.0489
     15  CD       180.0350   32.7190   47.5540 C.3   373  ARG373      0.2205
     16  NE       179.5990   33.5560   46.4370 N.pl3 373  ARG373     -0.0865
     17  CZ       178.4350   33.4310   45.8000 C.cat 373  ARG373      0.5346
     18  NH1      177.5610   32.4960   46.1550 N.pl3 373  ARG373      0.1354
     19  NH2      178.1480   34.2440   44.7930 N.pl3 373  ARG373      0.1354
     20  N        200.3220   40.1810   64.2190 N.3   402  ARG402     -0.1245
     21  CA       199.7500   41.4370   64.6530 C.3   402  ARG402      0.1563
     22  C        198.9200   41.3190   65.9490 C.2   402  ARG402      0.2260
     23  O        198.7820   42.2820   66.7020 O.2   402  ARG402     -0.2867
     24  CB       198.9290   41.9920   63.4840 C.3   402  ARG402      0.0307
     25  CG       199.6290   41.7580   62.1350 C.3   402  ARG402      0.0489
     26  CD       198.6700   41.2620   61.0820 C.3   402  ARG402      0.2205
     27  NE       197.9550   42.3510   60.4150 N.pl3 402  ARG402     -0.0865
     28  CZ       196.6470   42.3640   60.1440 C.cat 402  ARG402      0.5346
     29  NH1      195.8640   41.3410   60.4880 N.pl3 402  ARG402      0.1354
     30  NH2      196.1230   43.4060   59.5030 N.pl3 402  ARG402      0.1354
     31  N        195.5030   40.0880   66.1420 N.3   404  ARG404     -0.1245
     32  CA       194.1540   39.6000   65.8290 C.3   404  ARG404      0.1563
     33  C        193.9710   38.0780   66.0450 C.2   404  ARG404      0.2260
     34  O        194.8350   37.2700   65.6860 O.2   404  ARG404     -0.2867
     35  CB       193.7300   40.0080   64.4010 C.3   404  ARG404      0.0307
     36  CG       193.3360   41.5080   64.2250 C.3   404  ARG404      0.0489
     37  CD       192.2130   41.6800   63.1740 C.3   404  ARG404      0.2205
     38  NE       191.7620   43.0660   62.9960 N.pl3 404  ARG404     -0.0865
     39  CZ       190.9530   43.4720   62.0130 C.cat 404  ARG404      0.5346
     40  NH1      190.4970   42.5910   61.1230 N.pl3 404  ARG404      0.1354
     41  NH2      190.6440   44.7620   61.8930 N.pl3 404  ARG404      0.1354
     42  N        192.2380   34.5060   65.4590 N.3   406  TYR406     -0.1241
     43  CA       191.5840   33.6470   64.4920 C.3   406  TYR406      0.1605
     44  C        191.3720   32.2340   65.0400 C.2   406  TYR406      0.2264
     45  O        192.1480   31.7140   65.8480 O.2   406  TYR406     -0.2867
     46  CB       192.4060   33.5540   63.1880 C.3   406  TYR406      0.0534
     47  CG       192.8330   34.8840   62.5990 C.ar  406  TYR406     -0.0201
     48  CD1      193.7920   35.6750   63.2330 C.ar  406  TYR406     -0.0009
     49  CD2      192.2330   35.3850   61.4460 C.ar  406  TYR406     -0.0009
     50  CE1      194.1320   36.9430   62.7340 C.ar  406  TYR406      0.0417
     51  CE2      192.5730   36.6550   60.9370 C.ar  406  TYR406      0.0417
     52  CZ       193.5170   37.4300   61.5900 C.ar  406  TYR406      0.1957
     53  OH       193.8090   38.6960   61.1360 O.3   406  TYR406     -0.2866
     54  N        183.7210   32.6310   62.4640 N.3   414  GLN414     -0.1231
     55  CA       184.1810   33.8500   61.8180 C.3   414  GLN414      0.1698
     56  C        184.0720   33.7410   60.2810 C.2   414  GLN414      0.2593
     57  O        184.9560   34.2140   59.5750 O.2   414  GLN414     -0.2718
     58  CB       185.6430   34.0870   62.2080 C.3   414  GLN414      0.0381
     59  CG       185.9790   34.0100   63.6980 C.3   414  GLN414      0.0905
     60  CD       187.4960   33.9780   63.9310 C.2   414  GLN414      0.2608
     61  OE1      188.0110   34.5620   64.8840 O.2   414  GLN414     -0.2717
     62  NE2      188.2100   33.2890   63.0520 N.am  414  GLN414     -0.0878
     63  N        182.9990   33.1110   59.7820 N.am  415  GLY415     -0.1942
     64  CA       182.7910   32.9260   58.3440 C.3   415  GLY415      0.2014
     65  C        181.4950   33.5060   57.7730 C.2   415  GLY415      0.2638
     66  O        180.8330   34.2830   58.4280 O.2   415  GLY415     -0.2714
     67  N        181.1080   33.1300   56.5620 N.am  416  ASN416     -0.1972
     68  CA       179.9060   33.7020   55.9980 C.3   416  ASN416      0.1688
     69  C        178.6230   33.5020   56.8370 C.2   416  ASN416      0.2292
     70  O        178.6440   32.8620   57.8870 O.2   416  ASN416     -0.2864
     71  CB       179.7160   33.2020   54.5600 C.3   416  ASN416      0.1181
     72  CG       178.7180   32.0890   54.4620 C.2   416  ASN416      0.2629
     73  OD1      178.9030   31.0220   55.0730 O.2   416  ASN416     -0.2716
     74  ND2      177.6420   32.3140   53.6910 N.am  416  ASN416     -0.0877
     75  N        177.8050   31.1390   59.9440 N.3   420  LYS420     -0.1245
     76  CA       177.5160   31.7020   61.2640 C.3   420  LYS420      0.1561
     77  C        176.1410   31.2820   61.7820 C.2   420  LYS420      0.2260
     78  O        176.0090   30.8350   62.9280 O.2   420  LYS420     -0.2867
     79  CB       177.6280   33.2300   61.1980 C.3   420  LYS420      0.0271
     80  CG       178.8030   33.8080   62.0010 C.3   420  LYS420      0.0035
     81  CD       179.4980   35.0150   61.3180 C.3   420  LYS420      0.0206
     82  CE       178.5450   36.1820   60.9950 C.3   420  LYS420      0.1093
     83  NZ       179.2520   37.3220   60.3480 N.3   420  LYS420     -0.1314
     84  N        195.0310   47.3000   63.4980 N.3   763  HIS763     -0.1241
     85  CA       194.4810   46.0140   63.8560 C.3   763  HIS763      0.1621
     86  C        195.1670   45.6250   65.1420 C.2   763  HIS763      0.2264
     87  O        194.5000   45.2390   66.1070 O.2   763  HIS763     -0.2867
     88  CB       194.7400   44.9820   62.7530 C.3   763  HIS763      0.0745
     89  CG       194.0510   45.2830   61.4530 C.ar  763  HIS763      0.0817
     90  ND1      193.9160   46.5620   60.9590 N.ar  763  HIS763     -0.2268
     91  CD2      193.5350   44.4640   60.5070 C.ar  763  HIS763      0.1154
     92  CE1      193.3500   46.5190   59.7680 C.ar  763  HIS763      0.1986
     93  NE2      193.1090   45.2570   59.4690 N.ar  763  HIS763     -0.2212
     94  N        184.8050   38.2060   66.2920 N.3   789  ILE789     -0.1231
     95  CA       185.2530   38.2720   64.9050 C.3   789  ILE789      0.1692
     96  C        186.1180   39.5250   64.6870 C.2   789  ILE789      0.2592
     97  O        185.7720   40.3850   63.8710 O.2   789  ILE789     -0.2718
     98  CB       184.0350   38.4100   63.9370 C.3   789  ILE789      0.0266
     99  CG1      182.9100   37.4220   64.2820 C.3   789  ILE789      0.0019
    100  CG2      184.4760   38.1730   62.5330 C.3   789  ILE789      0.0020
    101  CD1      181.5460   37.7570   63.6750 C.3   789  ILE789      0.0001
    102  N        187.2250   39.6280   65.4270 N.am  790  HIS790     -0.1962
    103  CA       188.1580   40.7610   65.3330 C.3   790  HIS790      0.1787
    104  C        187.6020   42.0730   65.8820 C.2   790  HIS790      0.2620
    105  O        188.3370   42.8780   66.4580 O.2   790  HIS790     -0.2715
    106  CB       188.5850   40.9550   63.8840 C.3   790  HIS790      0.0785
    107  CG       189.2790   39.7640   63.3070 C.ar  790  HIS790      0.0821
    108  ND1      189.0240   39.2980   62.0370 N.ar  790  HIS790     -0.2267
    109  CD2      190.2240   38.9440   63.8240 C.ar  790  HIS790      0.1154
    110  CE1      189.7810   38.2420   61.7930 C.ar  790  HIS790      0.1986
    111  NE2      190.5200   38.0070   62.8620 N.ar  790  HIS790     -0.2212
    112  N        186.3000   42.2770   65.7100 N.am  791  ASP791     -0.1957
    113  CA       185.6290   43.4870   66.1670 C.3   791  ASP791      0.1840
    114  C        184.1480   43.2190   66.4060 C.2   791  ASP791      0.2622
    115  O        183.3650   44.1420   66.6740 O.2   791  ASP791     -0.2715
    116  CB       185.7590   44.5810   65.1120 C.3   791  ASP791      0.1450
    117  CG       185.1290   44.1850   63.7650 C.2   791  ASP791      0.3671
    118  OD1      185.1990   44.9970   62.8140 O.co2 791  ASP791     -0.2456
    119  OD2      184.5660   43.0670   63.6510 O.co2 791  ASP791     -0.2456
    120  N        183.7580   41.9580   66.2770 N.am  792  SER792     -0.1950
    121  CA       182.3750   41.6050   66.4630 C.3   792  SER792      0.1924
    122  C        182.3370   40.6340   67.5980 C.2   792  SER792      0.2314
    123  O        182.1440   39.4340   67.3890 O.2   792  SER792     -0.2863
    124  CB       181.8140   40.9660   65.1980 C.3   792  SER792      0.2116
    125  OG       180.4110   40.7780   65.2870 O.3   792  SER792     -0.2180
@<TRIPOS>BOND
     1    19    17    1
     2     9    10    1
     3    17    18    1
     4    17    16    2
     5    13    10    1
     6    13    14    1
     7    16    15    1
     8    10    11    1
     9    11    12    2
    10     1     2    1
    11    14    15    1
    12     3     2    1
    13     3     4    2
    14     2     5    1
    15     7     6   ar
    16     5     6    1
    17     6     8   ar
    18    74    72   am
    19    72    71    1
    20    72    73    2
    21    71    68    1
    22    68    67    1
    23    68    69    1
    24    67    65   am
    25    69    70    2
    26    65    64    1
    27    65    66    2
    28    64    63    1
    29    93    92   ar
    30    93    91   ar
    31    30    28    1
    32    57    56    2
    33    92    90   ar
    34    63    56   am
    35    75    76    1
    36    28    27    2
    37    28    29    1
    38    56    55    1
    39    83    82    1
    40    27    26    1
    41    91    89   ar
    42    51    49   ar
    43    51    52   ar
    44    90    89   ar
    45    82    81    1
    46    26    25    1
    47    40    39    1
    48    53    52    1
    49    79    76    1
    50    79    80    1
    51    76    77    1
    52    81    80    1
    53    49    47   ar
    54    89    88    1
    55    52    50   ar
    56    77    78    2
    57   110   108   ar
    58   110   111   ar
    59    55    58    1
    60    55    54    1
    61    41    39    1
    62    39    38    2
    63   108   107   ar
    64    25    24    1
    65    58    59    1
    66   100    98    1
    67    47    46    1
    68    47    48   ar
    69    50    48   ar
    70    88    85    1
    71   118   117   ar
    72   111   109   ar
    73    38    37    1
    74    62    60   am
    75    37    36    1
    76    46    43    1
    77   107   109   ar
    78   107   106    1
    79    24    21    1
    80    84    85    1
    81   119   117   ar
    82   101    99    1
    83    59    60    1
    84   117   116    1
    85    85    86    1
    86    97    96    2
    87   106   103    1
    88    60    61    2
    89    98    99    1
    90    98    95    1
    91    20    21    1
    92    36    35    1
    93    35    32    1
    94    43    44    1
    95    43    42    1
    96    21    22    1
    97    96    95    1
    98    96   102   am
    99    95    94    1
   100    44    45    2
   101   116   113    1
   102    86    87    2
   103   124   125    1
   104   124   121    1
   105   103   102    1
   106   103   104    1
   107    34    33    2
   108   112   104   am
   109   112   113    1
   110    32    33    1
   111    32    31    1
   112   104   105    2
   113    22    23    2
   114   113   114    1
   115   120   114   am
   116   120   121    1
   117   114   115    2
   118   121   122    1
   119   123   122    2
