@<TRIPOS>MOLECULE
tmp/2piaA00.pdb
 187 176 0 0 0
SMALL
GASTEIGER

@<TRIPOS>ATOM
      1  N          3.9430   33.1500   18.4340 N.3    44  ASN44      -0.1240
      2  CA         3.0330   32.6830   17.3940 C.3    44  ASN44       0.1653
      3  C          2.1350   31.5670   17.9370 C.2    44  ASN44       0.2266
      4  O          2.5460   30.8180   18.8200 O.2    44  ASN44      -0.2867
      5  CB         3.8370   32.1420   16.2200 C.3    44  ASN44       0.1155
      6  CG         4.7400   33.1790   15.6270 C.2    44  ASN44       0.2627
      7  OD1        4.2900   34.2690   15.2610 O.2    44  ASN44      -0.2716
      8  ND2        6.0340   32.9080   15.6050 N.am   44  ASN44      -0.0877
      9  N         -3.1070   27.0810   10.4270 N.3    55  ARG55      -0.1231
     10  CA        -2.3850   28.2790   10.0060 C.3    55  ARG55       0.1694
     11  C         -1.8070   29.0100   11.2150 C.2    55  ARG55       0.2593
     12  O         -2.4280   29.0410   12.2800 O.2    55  ARG55      -0.2718
     13  CB        -3.3260   29.2110    9.2580 C.3    55  ARG55       0.0321
     14  CG        -3.7150   28.7210    7.8800 C.3    55  ARG55       0.0489
     15  CD        -2.4700   28.4280    7.0710 C.3    55  ARG55       0.2205
     16  NE        -2.7580   27.9580    5.7220 N.pl3  55  ARG55      -0.0865
     17  CZ        -2.7460   26.6810    5.3590 C.cat  55  ARG55       0.5346
     18  NH1       -2.1190   25.7890    6.1160 N.pl3  55  ARG55       0.1354
     19  NH2       -3.0820   26.3560    4.1220 N.pl3  55  ARG55       0.1354
     20  N         -0.6080   29.5700   11.0540 N.am   56  THR56      -0.1939
     21  CA         0.1120   30.2310   12.1510 C.3    56  THR56       0.2028
     22  C         -0.0720   31.7480   12.1120 C.2    56  THR56       0.2642
     23  O          0.1020   32.3600   11.0730 O.2    56  THR56      -0.2714
     24  CB         1.6370   29.9030   12.0890 C.3    56  THR56       0.1808
     25  OG1        1.8170   28.5010   12.2960 O.3    56  THR56      -0.2208
     26  CG2        2.4260   30.6750   13.1660 C.3    56  THR56       0.0379
     27  N         -0.4330   32.3470   13.2450 N.am   57  TYR57      -0.1959
     28  CA        -0.6020   33.7940   13.3170 C.3    57  TYR57       0.1771
     29  C          0.1290   34.3630   14.5320 C.2    57  TYR57       0.2620
     30  O          0.2840   33.6670   15.5210 O.2    57  TYR57      -0.2715
     31  CB        -2.0960   34.1410   13.3710 C.3    57  TYR57       0.0574
     32  CG        -2.8560   33.6880   12.1380 C.ar   57  TYR57      -0.0198
     33  CD1       -2.4980   34.1340   10.8800 C.ar   57  TYR57      -0.0009
     34  CD2       -3.8570   32.7280   12.2190 C.ar   57  TYR57      -0.0009
     35  CE1       -3.0850   33.6330    9.7490 C.ar   57  TYR57       0.0417
     36  CE2       -4.4630   32.2390   11.0890 C.ar   57  TYR57       0.0417
     37  CZ        -4.0630   32.6920    9.8630 C.ar   57  TYR57       0.1957
     38  OH        -4.6490   32.2060    8.7230 O.3    57  TYR57      -0.2866
     39  N          0.6840   35.5690   14.4030 N.am   58  SER58      -0.1950
     40  CA         1.3580   36.2580   15.5220 C.3    58  SER58       0.1924
     41  C          0.3830   36.9010   16.4880 C.2    58  SER58       0.2314
     42  O         -0.5610   37.5590   16.0590 O.2    58  SER58      -0.2863
     43  CB         2.2860   37.3620   15.0120 C.3    58  SER58       0.2116
     44  OG         3.1860   36.8720   14.0300 O.3    58  SER58      -0.2180
     45  N         -4.4360   39.2110   13.7350 N.3    72  ALA72      -0.1231
     46  CA        -4.9230   39.9550   12.5770 C.3    72  ALA72       0.1694
     47  C         -4.5030   39.1870   11.3330 C.2    72  ALA72       0.2592
     48  O         -3.3380   38.7940   11.2040 O.2    72  ALA72      -0.2718
     49  CB        -4.3270   41.3840   12.5610 C.3    72  ALA72       0.0304
     50  N         -5.4920   38.8300   10.5180 N.am   73  VAL73      -0.1966
     51  CA        -5.3110   37.8980    9.4140 C.3    73  VAL73       0.1727
     52  C         -5.6750   38.5930    8.1070 C.2    73  VAL73       0.2616
     53  O         -6.7530   39.1600    7.9970 O.2    73  VAL73      -0.2715
     54  CB        -6.2300   36.6950    9.5850 C.3    73  VAL73       0.0290
     55  CG1       -6.0420   35.7100    8.4260 C.3    73  VAL73       0.0023
     56  CG2       -5.9580   36.0250   10.9210 C.3    73  VAL73       0.0023
     57  N         -4.7270   38.6740    7.1860 N.am   74  LYS74      -0.1977
     58  CA        -5.0100   39.1520    5.8380 C.3    74  LYS74       0.1596
     59  C         -5.6430   38.0500    4.9920 C.2    74  LYS74       0.2287
     60  O         -5.1840   36.9210    4.9770 O.2    74  LYS74      -0.2864
     61  CB        -3.7210   39.6540    5.1700 C.3    74  LYS74       0.0298
     62  CG        -3.8420   40.0020    3.6830 C.3    74  LYS74       0.0038
     63  CD        -2.5640   40.6340    3.1720 C.3    74  LYS74       0.0206
     64  CE        -2.5390   40.6770    1.6500 C.3    74  LYS74       0.1093
     65  NZ        -2.1700   39.3580    1.0420 N.3    74  LYS74      -0.1314
     66  N         -6.0710   36.1900    1.8250 N.3    76  ASP76      -0.1239
     67  CA        -5.2250   36.0030    0.6530 C.3    76  ASP76       0.1674
     68  C         -6.0090   35.2900   -0.4510 C.2    76  ASP76       0.2266
     69  O         -6.2100   34.0780   -0.4000 O.2    76  ASP76      -0.2867
     70  CB        -3.9820   35.2010    1.0440 C.3    76  ASP76       0.1410
     71  CG        -2.8730   35.2770    0.0120 C.2    76  ASP76       0.3668
     72  OD1       -3.0940   35.8170   -1.1040 O.co2  76  ASP76      -0.2456
     73  OD2       -1.7770   34.7520    0.3120 O.co2  76  ASP76      -0.2456
     74  N         -4.0820   32.7070   -2.0720 N.3    79  GLY79      -0.1210
     75  CA        -3.4190   31.7850   -1.1660 C.3    79  GLY79       0.1956
     76  C         -3.8370   30.3450   -1.3560 C.2    79  GLY79       0.2612
     77  O         -4.5060   30.0070   -2.3280 O.2    79  GLY79      -0.2717
     78  N         -3.5990   29.5310   -0.3470 N.am   80  ARG80      -0.1965
     79  CA        -3.9330   28.1160   -0.4030 C.3    80  ARG80       0.1729
     80  C         -5.3550   27.7780    0.0630 C.2    80  ARG80       0.2617
     81  O         -5.7700   26.6230   -0.0010 O.2    80  ARG80      -0.2715
     82  CB        -2.9170   27.3220    0.4170 C.3    80  ARG80       0.0348
     83  CG        -1.4910   27.5220   -0.0390 C.3    80  ARG80       0.0492
     84  CD        -0.5030   27.1300    1.0430 C.3    80  ARG80       0.2205
     85  NE        -0.6150   27.9800    2.2260 N.pl3  80  ARG80      -0.0865
     86  CZ         0.0300   27.7470    3.3650 C.cat  80  ARG80       0.5346
     87  NH1        0.5100   26.5320    3.6040 N.pl3  80  ARG80       0.1354
     88  NH2       -0.0350   28.6260    4.3550 N.pl3  80  ARG80       0.1354
     89  N         -6.1050   28.7760    0.5260 N.am   81  GLY81      -0.1940
     90  CA        -7.4670   28.5190    0.9690 C.3    81  GLY81       0.2014
     91  C         -7.6760   28.6850    2.4660 C.2    81  GLY81       0.2639
     92  O         -8.8080   28.8320    2.9300 O.2    81  GLY81      -0.2714
     93  N         -6.5820   28.7050    3.2190 N.am   82  GLY82      -0.1939
     94  CA        -6.6680   28.7520    4.6700 C.3    82  GLY82       0.2014
     95  C         -7.1160   30.0800    5.2640 C.2    82  GLY82       0.2640
     96  O         -8.0160   30.1120    6.1040 O.2    82  GLY82      -0.2714
     97  N         -6.5330   31.1810    4.7930 N.am   83  SER83      -0.1935
     98  CA        -6.9290   32.5090    5.2580 C.3    83  SER83       0.2055
     99  C         -8.3230   32.8950    4.7540 C.2    83  SER83       0.2642
    100  O         -9.1180   33.4510    5.4970 O.2    83  SER83      -0.2714
    101  CB        -5.9000   33.5560    4.8200 C.3    83  SER83       0.2130
    102  OG        -5.9630   33.8180    3.4310 O.3    83  SER83      -0.2179
    103  N         -8.6480   32.4940    3.5230 N.am   84  ILE84      -0.1977
    104  CA        -9.9990   32.6150    2.9590 C.3    84  ILE84       0.1596
    105  C        -11.0350   31.8830    3.8070 C.2    84  ILE84       0.2287
    106  O        -12.0200   32.4670    4.2400 O.2    84  ILE84      -0.2864
    107  CB       -10.0170   32.0560    1.5140 C.3    84  ILE84       0.0276
    108  CG1       -9.3290   33.0440    0.5750 C.3    84  ILE84       0.0022
    109  CG2      -11.4300   31.7920    1.0580 C.3    84  ILE84       0.0022
    110  CD1       -9.0610   32.5030   -0.8060 C.3    84  ILE84       0.0001
    111  N          8.8040   32.3580   19.7340 N.3   104  GLU104     -0.1245
    112  CA         9.6850   32.0860   18.6000 C.3   104  GLU104      0.1567
    113  C         10.4480   33.3010   18.0680 C.2   104  GLU104      0.2260
    114  O         11.3300   33.1550   17.2210 O.2   104  GLU104     -0.2867
    115  CB         8.8800   31.4620   17.4460 C.3   104  GLU104      0.0388
    116  CG         8.2580   30.1010   17.7530 C.3   104  GLU104      0.1160
    117  CD         7.4170   29.5430   16.6140 C.2   104  GLU104      0.3649
    118  OE1        6.6510   30.2960   15.9810 O.co2 104  GLU104     -0.2457
    119  OE2        7.4680   28.3250   16.3910 O.co2 104  GLU104     -0.2457
    120  N          1.2080   43.2320    6.6530 N.3   121  ILE121     -0.1245
    121  CA         0.7340   42.4260    7.7810 C.3   121  ILE121      0.1561
    122  C          1.8640   41.9250    8.7060 C.2   121  ILE121      0.2260
    123  O          1.6060   41.4320    9.7990 O.2   121  ILE121     -0.2867
    124  CB        -0.0980   41.2290    7.2740 C.3   121  ILE121      0.0252
    125  CG1       -0.9870   40.6840    8.3970 C.3   121  ILE121      0.0019
    126  CG2        0.8190   40.1520    6.6970 C.3   121  ILE121      0.0019
    127  CD1       -2.0580   41.6450    8.8500 C.3   121  ILE121      0.0001
    128  N          2.1330   42.6070   12.7690 N.3   124  THR124     -0.1218
    129  CA         1.6320   41.9480   13.9760 C.3   124  THR124      0.1862
    130  C          2.6620   41.5700   15.0550 C.2   124  THR124      0.2287
    131  O          2.4600   41.9120   16.2190 O.2   124  THR124     -0.2866
    132  CB         0.7190   40.7400   13.6470 C.3   124  THR124      0.1770
    133  OG1        1.3780   39.8620   12.7350 O.3   124  THR124     -0.2211
    134  CG2       -0.5760   41.2220   13.0120 C.3   124  THR124      0.0375
    135  N         11.8600   37.7460   10.8630 N.3   223  GLU223     -0.1231
    136  CA        10.8790   36.6690   10.8100 C.3   223  GLU223      0.1699
    137  C         10.0990   36.6910    9.4980 C.2   223  GLU223      0.2593
    138  O          9.5590   37.7210    9.0960 O.2   223  GLU223     -0.2718
    139  CB         9.9160   36.7560   11.9880 C.3   223  GLU223      0.0402
    140  CG         8.9870   35.5590   12.0660 C.3   223  GLU223      0.1161
    141  CD         8.1140   35.5720   13.2870 C.2   223  GLU223      0.3649
    142  OE1        7.3950   36.5710   13.4770 O.co2 223  GLU223     -0.2457
    143  OE2        8.1360   34.5700   14.0280 O.co2 223  GLU223     -0.2457
    144  N         10.1400   35.5800    8.7770 N.am  224  SER224     -0.1938
    145  CA         9.3800   35.4380    7.5400 C.3   224  SER224      0.2055
    146  C          8.0050   34.8450    7.8050 C.2   224  SER224      0.2643
    147  O          7.8720   33.9450    8.6290 O.2   224  SER224     -0.2714
    148  CB        10.1210   34.5290    6.5580 C.3   224  SER224      0.2130
    149  OG         9.3110   34.2510    5.4210 O.3   224  SER224     -0.2179
    150  N          6.9980   35.3160    7.0760 N.am  225  PHE225     -0.1973
    151  CA         5.6680   34.7240    7.1540 C.3   225  PHE225      0.1639
    152  C          5.4840   33.6560    6.0830 C.2   225  PHE225      0.2290
    153  O          4.4130   33.0710    5.9680 O.2   225  PHE225     -0.2864
    154  CB         4.5850   35.7840    6.9870 C.3   225  PHE225      0.0560
    155  CG         4.2820   36.5610    8.2310 C.ar  225  PHE225     -0.0200
    156  CD1        5.0840   36.4730    9.3530 C.ar  225  PHE225     -0.0042
    157  CD2        3.1920   37.4010    8.2680 C.ar  225  PHE225     -0.0042
    158  CE1        4.7970   37.2080   10.4930 C.ar  225  PHE225     -0.0003
    159  CE2        2.9030   38.1390    9.3980 C.ar  225  PHE225     -0.0003
    160  CZ         3.7050   38.0380   10.5140 C.ar  225  PHE225     -0.0000
    161  N          3.4000   33.1730   -2.3180 N.3   229  ASN229     -0.1240
    162  CA         2.5280   32.0850   -2.7760 C.3   229  ASN229      0.1653
    163  C          2.5800   31.6870   -4.2510 C.2   229  ASN229      0.2266
    164  O          1.8220   32.1880   -5.0860 O.2   229  ASN229     -0.2867
    165  CB         1.0750   32.3590   -2.3540 C.3   229  ASN229      0.1155
    166  CG         0.7000   33.8270   -2.4460 C.2   229  ASN229      0.2627
    167  OD1        1.2940   34.6760   -1.7830 O.2   229  ASN229     -0.2716
    168  ND2       -0.3100   34.1350   -3.2480 N.am  229  ASN229     -0.0877
    169  N          4.9570   25.7700   11.7660 N.3   272  CYS272     -0.1235
    170  CA         4.5840   26.9100   10.9340 C.3   272  CYS272      0.1677
    171  C          3.5470   26.6520    9.8100 C.2   272  CYS272      0.2270
    172  O          2.6710   27.4920    9.5790 O.2   272  CYS272     -0.2867
    173  CB         5.8490   27.5730   10.3650 C.3   272  CYS272      0.0956
    174  SG         6.6220   26.8030    8.8970 S.3   272  CYS272     -0.0801
    175  N          4.0660   26.8290    6.7610 N.3   274  SER274     -0.1217
    176  CA         4.3070   27.8410    5.7330 C.3   274  SER274      0.1889
    177  C          5.6850   27.7060    5.0670 C.2   274  SER274      0.2288
    178  O          6.0890   28.5550    4.2710 O.2   274  SER274     -0.2866
    179  CB         4.1460   29.2380    6.3410 C.3   274  SER274      0.2089
    180  OG         2.8020   29.4570    6.7510 O.3   274  SER274     -0.2183
    181  N          8.7740   27.7230    6.4470 N.3   276  THR276     -0.1218
    182  CA         9.8190   28.6080    6.9680 C.3   276  THR276      0.1862
    183  C         10.5540   28.0600    8.1900 C.2   276  THR276      0.2287
    184  O         11.6920   28.4440    8.4490 O.2   276  THR276     -0.2866
    185  CB         9.2490   29.9900    7.3630 C.3   276  THR276      0.1770
    186  OG1        8.2420   29.8260    8.3690 O.3   276  THR276     -0.2211
    187  CG2        8.6580   30.6910    6.1560 C.3   276  THR276      0.0375
@<TRIPOS>BOND
     1   164   163    2
     2   163   162    1
     3   168   166   am
     4   162   165    1
     5   162   161    1
     6   166   165    1
     7   166   167    2
     8    77    76    2
     9    74    75    1
    10    76    75    1
    11    76    78   am
    12    72    71   ar
    13   110   108    1
    14    68    69    2
    15    68    67    1
    16    79    78    1
    17    79    80    1
    18    79    82    1
    19    83    82    1
    20    83    84    1
    21    81    80    2
    22    71    73   ar
    23    71    70    1
    24    80    89   am
    25    89    90    1
    26   108   107    1
    27    67    70    1
    28    67    66    1
    29    90    91    1
    30    65    64    1
    31    84    85    1
    32   109   107    1
    33   107   104    1
    34    64    63    1
    35    85    86    2
    36    91    92    2
    37    91    93   am
    38   104   103    1
    39   104   105    1
    40    63    62    1
    41    93    94    1
    42    86    87    1
    43    86    88    1
    44   102   101    1
    45   103    99   am
    46    62    61    1
    47   105   106    2
    48    19    17    1
    49   178   177    2
    50    94    95    1
    51    99    98    1
    52    99   100    2
    53    97    98    1
    54    97    95   am
    55   101    98    1
    56    60    59    2
    57    59    58    1
    58   177   176    1
    59    61    58    1
    60    95    96    2
    61    17    16    2
    62    17    18    1
    63   149   148    1
    64    16    15    1
    65   176   179    1
    66   176   175    1
    67    58    57    1
    68   153   152    2
    69   152   151    1
    70   187   185    1
    71   179   180    1
    72   181   182    1
    73   148   145    1
    74   120   121    1
    75   126   124    1
    76   182   185    1
    77   182   183    1
    78   154   151    1
    79   154   155    1
    80    15    14    1
    81   150   151    1
    82   150   146   am
    83    57    52   am
    84   124   121    1
    85   124   125    1
    86   185   186    1
    87   145   146    1
    88   145   144    1
    89   121   122    1
    90   146   147    2
    91    14    13    1
    92    53    52    2
    93    52    51    1
    94   183   184    2
    95   155   157   ar
    96   155   156   ar
    97   157   159   ar
    98   125   127    1
    99    55    54    1
   100   122   123    2
   101    38    37    1
   102   144   137   am
   103   174   173    1
   104   138   137    2
   105    13    10    1
   106   156   158   ar
   107   159   160   ar
   108    51    54    1
   109    51    50    1
   110   137   136    1
   111   172   171    2
   112    54    56    1
   113    35    37   ar
   114    35    33   ar
   115   171   170    1
   116    37    36   ar
   117    10     9    1
   118    10    11    1
   119   173   170    1
   120   158   160   ar
   121    50    47   am
   122   136   135    1
   123   136   139    1
   124    33    32   ar
   125   170   169    1
   126    20    11   am
   127    20    21    1
   128    23    22    2
   129    36    34   ar
   130    48    47    2
   131    11    12    2
   132    47    46    1
   133   139   140    1
   134   140   141    1
   135    24    21    1
   136    24    25    1
   137    24    26    1
   138    22    21    1
   139    22    27   am
   140    32    34   ar
   141    32    31    1
   142    49    46    1
   143    46    45    1
   144   133   132    1
   145   128   129    1
   146   134   132    1
   147    27    28    1
   148   141   142   ar
   149   141   143   ar
   150    28    31    1
   151    28    29    1
   152   132   129    1
   153   129   130    1
   154    44    43    1
   155    39    29   am
   156    39    40    1
   157    29    30    2
   158    43    40    1
   159   130   131    2
   160     7     6    2
   161    40    41    1
   162     8     6   am
   163     6     5    1
   164   118   117   ar
   165    42    41    2
   166     5     2    1
   167   119   117   ar
   168   117   116    1
   169   114   113    2
   170     2     3    1
   171     2     1    1
   172   115   116    1
   173   115   112    1
   174     3     4    2
   175   113   112    1
   176   112   111    1
