@<TRIPOS>MOLECULE
tmp/2pinA01.pdb
 78 71 0 0 0
SMALL
GASTEIGER

@<TRIPOS>ATOM
      1  N         52.7830    3.1240   37.5550 N.3    62  THR62      -0.1218
      2  CA        53.4530    4.0810   36.6770 C.3    62  THR62       0.1862
      3  C         53.5130    3.6090   35.2270 C.2    62  THR62       0.2287
      4  O         53.1120    4.3340   34.3180 O.2    62  THR62      -0.2866
      5  CB        54.8890    4.3740   37.1650 C.3    62  THR62       0.1770
      6  OG1       54.8420    4.9040   38.5020 O.3    62  THR62      -0.2211
      7  CG2       55.5660    5.3860   36.2520 C.3    62  THR62       0.0375
      8  N         50.2800    3.9790   33.4970 N.3    65  ILE65      -0.1231
      9  CA        49.9640    5.3870   33.2890 C.3    65  ILE65       0.1692
     10  C         50.7300    5.9630   32.1010 C.2    65  ILE65       0.2592
     11  O         50.1480    6.6050   31.2240 O.2    65  ILE65      -0.2718
     12  CB        50.3090    6.2170   34.5420 C.3    65  ILE65       0.0266
     13  CG1       49.4090    5.7980   35.7120 C.3    65  ILE65       0.0019
     14  CG2       50.1460    7.7000   34.2460 C.3    65  ILE65       0.0020
     15  CD1       49.8360    6.3580   37.0480 C.3    65  ILE65       0.0001
     16  N         52.0370    5.7290   32.0840 N.am   66  THR66      -0.1953
     17  CA        52.8950    6.2340   31.0160 C.3    66  THR66       0.1897
     18  C         52.5070    5.6970   29.6410 C.2    66  THR66       0.2313
     19  O         52.7630    6.3390   28.6250 O.2    66  THR66      -0.2863
     20  CB        54.3730    5.8800   31.2790 C.3    66  THR66       0.1794
     21  OG1       54.5280    4.4540   31.3060 O.3    66  THR66      -0.2208
     22  CG2       54.8290    6.4590   32.6070 C.3    66  THR66       0.0378
     23  N         49.5620    7.7180   28.1560 N.3    69  VAL69      -0.1245
     24  CA        50.1000    8.9790   27.6590 C.3    69  VAL69       0.1561
     25  C         50.7890    8.7430   26.3190 C.2    69  VAL69       0.2260
     26  O         50.6470    9.5390   25.3890 O.2    69  VAL69      -0.2867
     27  CB        51.1250    9.5780   28.6500 C.3    69  VAL69       0.0252
     28  CG1       51.7770   10.8090   28.0480 C.3    69  VAL69       0.0019
     29  CG2       50.4340    9.9300   29.9590 C.3    69  VAL69       0.0019
     30  N         46.7130   17.7120   28.7260 N.3    87  ILE87      -0.1245
     31  CA        46.7880   17.3970   30.1460 C.3    87  ILE87       0.1561
     32  C         45.3960   17.0920   30.6870 C.2    87  ILE87       0.2260
     33  O         45.2020   16.1290   31.4310 O.2    87  ILE87      -0.2867
     34  CB        47.3860   18.5700   30.9530 C.3    87  ILE87       0.0252
     35  CG1       48.8430   18.7970   30.5370 C.3    87  ILE87       0.0019
     36  CG2       47.2980   18.2800   32.4480 C.3    87  ILE87       0.0019
     37  CD1       49.5100   19.9700   31.2390 C.3    87  ILE87       0.0001
     38  N         44.0760   13.6480   29.1830 N.3    90  LEU90      -0.1231
     39  CA        44.7930   12.5260   29.7770 C.3    90  LEU90       0.1693
     40  C         44.3530   12.2490   31.2130 C.2    90  LEU90       0.2591
     41  O         44.0730   11.1060   31.5710 O.2    90  LEU90      -0.2718
     42  CB        46.3030   12.7830   29.7350 C.3    90  LEU90       0.0284
     43  CG        46.9680   12.6580   28.3590 C.3    90  LEU90       0.0019
     44  CD1       48.3650   13.2500   28.4030 C.3    90  LEU90       0.0001
     45  CD2       47.0140   11.1930   27.9480 C.3    90  LEU90       0.0001
     46  N         44.2950   13.2910   32.0320 N.am   91  LYS91      -0.1980
     47  CA        43.8810   13.1460   33.4270 C.3    91  LYS91       0.1596
     48  C         42.4370   12.6800   33.5440 C.2    91  LYS91       0.2287
     49  O         42.0130   12.2050   34.6040 O.2    91  LYS91      -0.2864
     50  CB        44.0280   14.4730   34.1810 C.3    91  LYS91       0.0298
     51  CG        45.4430   14.7860   34.6250 C.3    91  LYS91       0.0038
     52  CD        45.5020   16.0440   35.4730 C.3    91  LYS91       0.0206
     53  CE        46.9280   16.3440   35.9190 C.3    91  LYS91       0.1093
     54  NZ        47.0040   17.6240   36.6750 N.3    91  LYS91      -0.1314
     55  N         54.3450    9.9840   39.4230 N.3   239  LEU239     -0.1245
     56  CA        53.4360   10.0900   38.2870 C.3   239  LEU239      0.1561
     57  C         52.0160    9.6550   38.6380 C.2   239  LEU239      0.2260
     58  O         51.0520   10.0760   38.0000 O.2   239  LEU239     -0.2867
     59  CB        53.9520    9.2630   37.1090 C.3   239  LEU239      0.0270
     60  CG        55.2400    9.7520   36.4390 C.3   239  LEU239      0.0019
     61  CD1       55.5560    8.8720   35.2400 C.3   239  LEU239      0.0001
     62  CD2       55.0740   11.2020   36.0040 C.3   239  LEU239      0.0001
     63  N         50.3140   12.8640   40.4730 N.3   242  GLU242     -0.1231
     64  CA        49.9920   13.9250   39.5310 C.3   242  GLU242      0.1699
     65  C         48.7970   13.6060   38.6380 C.2   242  GLU242      0.2592
     66  O         47.9020   14.4330   38.4740 O.2   242  GLU242     -0.2718
     67  CB        51.2170   14.2410   38.6660 C.3   242  GLU242      0.0402
     68  CG        51.0150   15.4050   37.7120 C.3   242  GLU242      0.1161
     69  CD        50.4240   16.6210   38.3980 C.2   242  GLU242      0.3649
     70  OE1       50.9670   17.0450   39.4360 O.co2 242  GLU242     -0.2457
     71  OE2       49.4140   17.1540   37.8960 O.co2 242  GLU242     -0.2457
     72  N         48.7890   12.4100   38.0600 N.am  243  VAL243     -0.1980
     73  CA        47.7020   11.9930   37.1790 C.3   243  VAL243      0.1595
     74  C         46.3280   12.2190   37.8000 C.2   243  VAL243      0.2287
     75  O         45.4390   12.7850   37.1650 O.2   243  VAL243     -0.2864
     76  CB        47.8360   10.5010   36.7980 C.3   243  VAL243      0.0276
     77  CG1       46.5150    9.9720   36.2620 C.3   243  VAL243      0.0022
     78  CG2       48.9220   10.3390   35.7510 C.3   243  VAL243      0.0022
@<TRIPOS>BOND
     1    26    25    2
     2    25    24    1
     3    24    23    1
     4    24    27    1
     5    45    43    1
     6    28    27    1
     7    43    44    1
     8    43    42    1
     9    19    18    2
    10    27    29    1
    11    30    31    1
    12    38    39    1
    13    18    17    1
    14    42    39    1
    15    39    40    1
    16    31    32    1
    17    31    34    1
    18    35    34    1
    19    35    37    1
    20    32    33    2
    21    34    36    1
    22    17    20    1
    23    17    16    1
    24    40    41    2
    25    40    46   am
    26    11    10    2
    27    20    21    1
    28    20    22    1
    29    46    47    1
    30    16    10   am
    31    10     9    1
    32     9     8    1
    33     9    12    1
    34    47    48    1
    35    47    50    1
    36    48    49    2
    37    50    51    1
    38    14    12    1
    39     4     3    2
    40    12    13    1
    41    51    52    1
    42     3     2    1
    43    61    60    1
    44    52    53    1
    45    13    15    1
    46    78    76    1
    47    53    54    1
    48    62    60    1
    49     7     5    1
    50    77    76    1
    51    60    59    1
    52     2     5    1
    53     2     1    1
    54    76    73    1
    55    59    56    1
    56     5     6    1
    57    75    74    2
    58    73    74    1
    59    73    72    1
    60    68    69    1
    61    68    67    1
    62    71    69   ar
    63    58    57    2
    64    72    65   am
    65    56    57    1
    66    56    55    1
    67    69    70   ar
    68    66    65    2
    69    65    64    1
    70    67    64    1
    71    64    63    1
