@<TRIPOS>MOLECULE
tmp/2pioA01.pdb
 90 82 0 0 0
SMALL
GASTEIGER

@<TRIPOS>ATOM
      1  N         57.9720    9.3780    9.8720 N.3    42  LEU42      -0.1245
      2  CA        58.1670    9.0900   11.2920 C.3    42  LEU42       0.1561
      3  C         58.6060   10.3640   12.0090 C.2    42  LEU42       0.2260
      4  O         58.0800   10.7240   13.0640 O.2    42  LEU42      -0.2867
      5  CB        59.2280    7.9980   11.4670 C.3    42  LEU42       0.0270
      6  CG        59.3280    7.3370   12.8450 C.3    42  LEU42       0.0019
      7  CD1       57.9780    6.7480   13.2240 C.3    42  LEU42       0.0001
      8  CD2       60.3860    6.2490   12.8180 C.3    42  LEU42       0.0001
      9  N         56.6220   12.0820   15.1160 N.3    46  VAL46      -0.1245
     10  CA        57.2010   12.2570   16.4460 C.3    46  VAL46       0.1561
     11  C         57.0340   13.7110   16.9350 C.2    46  VAL46       0.2260
     12  O         56.6460   13.9510   18.0790 O.2    46  VAL46      -0.2867
     13  CB        58.7150   11.8990   16.4620 C.3    46  VAL46       0.0252
     14  CG1       59.3370   12.3800   17.7730 C.3    46  VAL46       0.0019
     15  CG2       58.9120   10.3830   16.2990 C.3    46  VAL46       0.0019
     16  N         54.5600   14.8000   20.1820 N.3    50  LYS50      -0.1245
     17  CA        55.0990   15.5290   21.3270 C.3    50  LYS50       0.1561
     18  C         54.4040   16.8680   21.5650 C.2    50  LYS50       0.2260
     19  O         54.4820   17.4260   22.6590 O.2    50  LYS50      -0.2867
     20  CB        56.6060   15.7380   21.1580 C.3    50  LYS50       0.0271
     21  CG        57.4030   14.4940   21.4790 C.3    50  LYS50       0.0035
     22  CD        58.8920   14.7110   21.3330 C.3    50  LYS50       0.0206
     23  CE        59.6560   13.4070   21.5630 C.3    50  LYS50       0.1093
     24  NZ        59.3780   12.7950   22.9060 N.3    50  LYS50      -0.1314
     25  N         58.4010    9.2420   29.7330 N.3    60  VAL60      -0.1245
     26  CA        59.1980    9.2940   28.5060 C.3    60  VAL60       0.1561
     27  C         59.2850    7.9790   27.7490 C.2    60  VAL60       0.2260
     28  O         59.2870    7.9620   26.5130 O.2    60  VAL60      -0.2867
     29  CB        60.6400    9.7900   28.7840 C.3    60  VAL60       0.0252
     30  CG1       60.6110   11.2200   29.2770 C.3    60  VAL60       0.0019
     31  CG2       61.3190    8.8880   29.8060 C.3    60  VAL60       0.0019
     32  N         56.0210    7.4290   25.9780 N.3    63  GLN63      -0.1231
     33  CA        55.8410    8.3550   24.8630 C.3    63  GLN63       0.1698
     34  C         56.4250    7.7360   23.6030 C.2    63  GLN63       0.2592
     35  O         55.8060    7.7350   22.5440 O.2    63  GLN63      -0.2718
     36  CB        56.5660    9.6690   25.1330 C.3    63  GLN63       0.0381
     37  CG        55.8920   10.5800   26.1270 C.3    63  GLN63       0.0905
     38  CD        56.6320   11.8820   26.2620 C.2    63  GLN63       0.2608
     39  OE1       57.0700   12.4490   25.2680 O.2    63  GLN63      -0.2717
     40  NE2       56.7750   12.3700   27.4870 N.am   63  GLN63      -0.0878
     41  N         57.6390    7.2230   23.7300 N.am   64  MET64      -0.1979
     42  CA        58.3150    6.5950   22.6170 C.3    64  MET64       0.1605
     43  C         57.5870    5.3070   22.2200 C.2    64  MET64       0.2287
     44  O         57.4610    4.9880   21.0410 O.2    64  MET64      -0.2864
     45  CB        59.7580    6.2780   23.0130 C.3    64  MET64       0.0413
     46  CG        60.6170    5.8240   21.8440 C.3    64  MET64       0.0598
     47  SD        62.1750    5.1350   22.3900 S.3    64  MET64      -0.1393
     48  CE        62.8600    6.5670   23.2480 C.3    64  MET64       0.0692
     49  N         54.2640    5.7340   20.1820 N.3    67  ILE67      -0.1231
     50  CA        54.6030    6.1770   18.8380 C.3    67  ILE67       0.1692
     51  C         55.1770    4.9970   18.0510 C.2    67  ILE67       0.2591
     52  O         54.7900    4.7440   16.9100 O.2    67  ILE67      -0.2718
     53  CB        55.6230    7.3340   18.8820 C.3    67  ILE67       0.0266
     54  CG1       54.9520    8.5800   19.4760 C.3    67  ILE67       0.0019
     55  CG2       56.1710    7.6150   17.4740 C.3    67  ILE67       0.0020
     56  CD1       55.8590    9.7700   19.6050 C.3    67  ILE67       0.0001
     57  N         56.0860    4.2590   18.6740 N.am   68  GLN68      -0.1979
     58  CA        56.6920    3.1120   18.0220 C.3    68  GLN68       0.1601
     59  C         55.7030    1.9990   17.6750 C.2    68  GLN68       0.2287
     60  O         55.9420    1.2280   16.7510 O.2    68  GLN68      -0.2864
     61  CB        57.8220    2.5660   18.8870 C.3    68  GLN68       0.0394
     62  CG        59.1310    3.2630   18.6200 C.3    68  GLN68       0.0908
     63  CD        60.2190    2.9260   19.6260 C.2    68  GLN68       0.2608
     64  OE1       61.3840    3.2430   19.4000 O.2    68  GLN68      -0.2717
     65  NE2       59.8450    2.3010   20.7410 N.am   68  GLN68      -0.0878
     66  N         65.9390    4.0210   11.2340 N.3   224  MET224     -0.1245
     67  CA        64.8170    3.9270   12.1610 C.3   224  MET224      0.1570
     68  C         63.7770    2.8860   11.7840 C.2   224  MET224      0.2261
     69  O         63.1730    2.2640   12.6570 O.2   224  MET224     -0.2867
     70  CB        64.1360    5.2840   12.3040 C.3   224  MET224      0.0387
     71  CG        65.0010    6.3170   12.9800 C.3   224  MET224      0.0595
     72  SD        64.1120    7.8480   13.2170 S.3   224  MET224     -0.1393
     73  CE        64.1320    8.4930   11.5120 C.3   224  MET224      0.0692
     74  N         65.2390   -0.5630   12.5820 N.3   227  GLU227     -0.1231
     75  CA        65.2860   -0.7620   14.0200 C.3   227  GLU227      0.1699
     76  C         63.9040   -1.0280   14.6090 C.2   227  GLU227      0.2592
     77  O         63.7100   -1.9960   15.3440 O.2   227  GLU227     -0.2718
     78  CB        65.9140    0.4540   14.7020 C.3   227  GLU227      0.0402
     79  CG        66.1140    0.2780   16.2030 C.3   227  GLU227      0.1161
     80  CD        66.6460    1.5280   16.8740 C.2   227  GLU227      0.3649
     81  OE1       65.9680    2.5780   16.8100 O.co2 227  GLU227     -0.2457
     82  OE2       67.7450    1.4590   17.4660 O.co2 227  GLU227     -0.2457
     83  N         62.9470   -0.1730   14.2700 N.am  228  ILE228     -0.1980
     84  CA        61.5880   -0.2940   14.7830 C.3   228  ILE228      0.1595
     85  C         60.8630   -1.5620   14.3340 C.2   228  ILE228      0.2287
     86  O         60.1770   -2.2070   15.1320 O.2   228  ILE228     -0.2864
     87  CB        60.7550    0.9600   14.4020 C.3   228  ILE228      0.0276
     88  CG1       61.3210    2.1790   15.1300 C.3   228  ILE228      0.0022
     89  CG2       59.2970    0.7790   14.7790 C.3   228  ILE228      0.0022
     90  CD1       60.6220    3.4920   14.7820 C.3   228  ILE228      0.0001
@<TRIPOS>BOND
     1     1     2    1
     2    66    67    1
     3     2     5    1
     4     2     3    1
     5     5     6    1
     6    73    72    1
     7    68    67    1
     8    68    69    2
     9     3     4    2
    10    67    70    1
    11    70    71    1
    12    74    75    1
    13     8     6    1
    14     6     7    1
    15    71    72    1
    16    75    76    1
    17    75    78    1
    18    83    76   am
    19    83    84    1
    20    85    84    1
    21    85    86    2
    22    87    89    1
    23    87    84    1
    24    87    88    1
    25    76    77    2
    26    78    79    1
    27    90    88    1
    28     9    10    1
    29    79    80    1
    30    15    13    1
    31    10    13    1
    32    10    11    1
    33    13    14    1
    34    60    59    2
    35    81    80   ar
    36    80    82   ar
    37    52    51    2
    38    11    12    2
    39    55    53    1
    40    59    58    1
    41    58    57    1
    42    58    61    1
    43    51    57   am
    44    51    50    1
    45    62    61    1
    46    62    63    1
    47    50    53    1
    48    50    49    1
    49    53    54    1
    50    64    63    2
    51    54    56    1
    52    63    65   am
    53    16    17    1
    54    44    43    2
    55    20    17    1
    56    20    21    1
    57    17    18    1
    58    22    21    1
    59    22    23    1
    60    23    24    1
    61    18    19    2
    62    46    47    1
    63    46    45    1
    64    43    42    1
    65    47    48    1
    66    35    34    2
    67    42    45    1
    68    42    41    1
    69    34    41   am
    70    34    33    1
    71    33    36    1
    72    33    32    1
    73    36    37    1
    74    39    38    2
    75    37    38    1
    76    38    40   am
    77    28    27    2
    78    27    26    1
    79    26    29    1
    80    26    25    1
    81    29    30    1
    82    29    31    1
