@<TRIPOS>MOLECULE
tmp/2pipA02.pdb
 108 100 0 0 0
SMALL
GASTEIGER

@<TRIPOS>ATOM
      1  N         30.7750   42.4870    9.8570 N.3    43  LEU43      -0.1231
      2  CA        30.9720   42.1500   11.2650 C.3    43  LEU43       0.1693
      3  C         31.4790   43.3840   12.0480 C.2    43  LEU43       0.2591
      4  O         31.1140   43.6150   13.1960 O.2    43  LEU43      -0.2718
      5  CB        31.9830   40.9980   11.3700 C.3    43  LEU43       0.0284
      6  CG        32.1390   40.3990   12.7680 C.3    43  LEU43       0.0019
      7  CD1       30.7810   39.8470   13.2410 C.3    43  LEU43       0.0001
      8  CD2       33.1670   39.2950   12.7460 C.3    43  LEU43       0.0001
      9  N         32.3460   44.1700   11.4270 N.am   44  VAL44      -0.1980
     10  CA        32.8940   45.3570   12.0640 C.3    44  VAL44       0.1595
     11  C         31.7860   46.3740   12.3040 C.2    44  VAL44       0.2287
     12  O         31.7130   46.9930   13.3690 O.2    44  VAL44      -0.2864
     13  CB        33.9720   46.0010   11.1820 C.3    44  VAL44       0.0276
     14  CG1       34.4220   47.3380   11.7940 C.3    44  VAL44       0.0022
     15  CG2       35.1590   45.0550   11.0510 C.3    44  VAL44       0.0022
     16  N         29.5100   45.1470   15.2100 N.3    47  VAL47      -0.1245
     17  CA        30.1090   45.3220   16.5290 C.3    47  VAL47       0.1561
     18  C         29.9320   46.7540   17.0330 C.2    47  VAL47       0.2260
     19  O         29.6070   46.9800   18.1940 O.2    47  VAL47      -0.2867
     20  CB        31.6210   44.9760   16.5060 C.3    47  VAL47       0.0252
     21  CG1       32.2470   45.2670   17.8830 C.3    47  VAL47       0.0019
     22  CG2       31.8110   43.4970   16.1370 C.3    47  VAL47       0.0019
     23  N         27.4050   47.9310   19.9060 N.3    51  LYS51      -0.1245
     24  CA        28.0370   48.7470   20.9440 C.3    51  LYS51       0.1561
     25  C         27.6200   50.2180   20.8550 C.2    51  LYS51       0.2260
     26  O         28.4500   51.1160   20.9690 O.2    51  LYS51      -0.2867
     27  CB        29.5620   48.6540   20.8580 C.3    51  LYS51       0.0271
     28  CG        30.1490   47.8580   22.0120 C.3    51  LYS51       0.0035
     29  CD        31.6250   47.5850   21.8140 C.3    51  LYS51       0.0206
     30  CE        32.4110   48.9420   21.7150 C.3    51  LYS51       0.1093
     31  NZ        33.8600   48.6780   21.4700 N.3    51  LYS51      -0.1314
     32  N         23.2800   48.2360   26.1170 N.3    56  PHE56      -0.1241
     33  CA        24.1160   47.1190   25.7050 C.3    56  PHE56       0.1605
     34  C         25.3310   46.9620   26.6110 C.2    56  PHE56       0.2264
     35  O         25.8320   45.8490   26.8180 O.2    56  PHE56      -0.2867
     36  CB        24.5980   47.3050   24.2690 C.3    56  PHE56       0.0534
     37  CG        25.3390   46.1120   23.7400 C.ar   56  PHE56      -0.0203
     38  CD1       24.6620   44.9620   23.3800 C.ar   56  PHE56      -0.0042
     39  CD2       26.7300   46.1240   23.6190 C.ar   56  PHE56      -0.0042
     40  CE1       25.3410   43.8410   22.9000 C.ar   56  PHE56      -0.0003
     41  CE2       27.4150   45.0110   23.1440 C.ar   56  PHE56      -0.0003
     42  CZ        26.7260   43.8710   22.7820 C.ar   56  PHE56      -0.0000
     43  N         31.3990   42.3950   29.7700 N.3    61  VAL61      -0.1245
     44  CA        32.2570   42.5060   28.5970 C.3    61  VAL61       0.1561
     45  C         32.3580   41.1890   27.8120 C.2    61  VAL61       0.2260
     46  O         32.4500   41.1860   26.5820 O.2    61  VAL61      -0.2867
     47  CB        33.6760   42.9770   28.9920 C.3    61  VAL61       0.0252
     48  CG1       34.4190   41.8720   29.7260 C.3    61  VAL61       0.0019
     49  CG2       34.4330   43.3770   27.7510 C.3    61  VAL61       0.0019
     50  N         29.0180   40.5140   26.0420 N.3    64  GLN64      -0.1231
     51  CA        28.8520   41.4510   24.9340 C.3    64  GLN64       0.1698
     52  C         29.3960   40.8070   23.6700 C.2    64  GLN64       0.2592
     53  O         28.7720   40.8340   22.6210 O.2    64  GLN64      -0.2718
     54  CB        29.6080   42.7490   25.2040 C.3    64  GLN64       0.0381
     55  CG        28.8410   43.7680   26.0380 C.3    64  GLN64       0.0905
     56  CD        29.6850   44.9800   26.3900 C.2    64  GLN64       0.2608
     57  OE1       30.3500   45.5510   25.5220 O.2    64  GLN64      -0.2717
     58  NE2       29.6570   45.3860   27.6620 N.am   64  GLN64      -0.0878
     59  N         30.5860   40.2420   23.7750 N.am   65  MET65      -0.1979
     60  CA        31.2180   39.5660   22.6580 C.3    65  MET65       0.1605
     61  C         30.4660   38.2830   22.2830 C.2    65  MET65       0.2287
     62  O         30.3400   37.9510   21.1020 O.2    65  MET65      -0.2864
     63  CB        32.6530   39.2130   23.0410 C.3    65  MET65       0.0413
     64  CG        33.4670   38.6020   21.9250 C.3    65  MET65       0.0598
     65  SD        35.1170   38.0610   22.4960 S.3    65  MET65      -0.1393
     66  CE        35.7360   39.5330   23.2490 C.3    65  MET65       0.0692
     67  N         27.1490   38.8950   20.1850 N.3    68  ILE68      -0.1231
     68  CA        27.5040   39.2690   18.8250 C.3    68  ILE68       0.1692
     69  C         28.0350   38.0620   18.0360 C.2    68  ILE68       0.2591
     70  O         27.6350   37.8200   16.9090 O.2    68  ILE68      -0.2718
     71  CB        28.6000   40.3840   18.8290 C.3    68  ILE68       0.0266
     72  CG1       28.1130   41.6260   19.5950 C.3    68  ILE68       0.0019
     73  CG2       28.9540   40.7410   17.4280 C.3    68  ILE68       0.0020
     74  CD1       29.1500   42.6730   19.8040 C.3    68  ILE68       0.0001
     75  N         28.9650   37.3230   18.6280 N.am   69  GLN69      -0.1979
     76  CA        29.5710   36.1610   17.9840 C.3    69  GLN69       0.1601
     77  C         28.5780   35.0500   17.6630 C.2    69  GLN69       0.2287
     78  O         28.8080   34.2410   16.7820 O.2    69  GLN69      -0.2864
     79  CB        30.7060   35.6280   18.8670 C.3    69  GLN69       0.0394
     80  CG        32.0180   36.3820   18.7320 C.3    69  GLN69       0.0908
     81  CD        33.0720   35.8850   19.7010 C.2    69  GLN69       0.2608
     82  OE1       34.2620   36.1300   19.5120 O.2    69  GLN69      -0.2717
     83  NE2       32.6380   35.1930   20.7560 N.am   69  GLN69      -0.0878
     84  N         38.8600   37.0610   11.1050 N.3   225  MET225     -0.1245
     85  CA        37.8100   36.9920   12.1140 C.3   225  MET225      0.1570
     86  C         36.7560   35.9380   11.7820 C.2   225  MET225      0.2261
     87  O         36.2910   35.2260   12.6670 O.2   225  MET225     -0.2867
     88  CB        37.1170   38.3500   12.2730 C.3   225  MET225      0.0387
     89  CG        37.9520   39.4090   12.9350 C.3   225  MET225      0.0595
     90  SD        37.0180   40.9360   13.2770 S.3   225  MET225     -0.1393
     91  CE        36.9190   41.6070   11.5950 C.3   225  MET225      0.0692
     92  N         38.0240   32.3890   12.5870 N.3   228  GLU228     -0.1231
     93  CA        38.0670   32.1640   14.0230 C.3   228  GLU228      0.1699
     94  C         36.6900   31.9540   14.6140 C.2   228  GLU228      0.2592
     95  O         36.4680   30.9910   15.3410 O.2   228  GLU228     -0.2718
     96  CB        38.7530   33.3350   14.7250 C.3   228  GLU228      0.0402
     97  CG        38.7240   33.2440   16.2470 C.3   228  GLU228      0.1161
     98  CD        39.3340   34.4760   16.9110 C.2   228  GLU228      0.3649
     99  OE1       40.5720   34.6620   16.8200 O.co2 228  GLU228     -0.2457
    100  OE2       38.5720   35.2690   17.5120 O.co2 228  GLU228     -0.2457
    101  N         35.7600   32.8400   14.2800 N.am  229  ILE229     -0.1980
    102  CA        34.4040   32.7450   14.8040 C.3   229  ILE229      0.1595
    103  C         33.6680   31.4830   14.3610 C.2   229  ILE229      0.2287
    104  O         32.9490   30.8730   15.1430 O.2   229  ILE229     -0.2864
    105  CB        33.5660   33.9740   14.3920 C.3   229  ILE229      0.0276
    106  CG1       34.1350   35.2310   15.0500 C.3   229  ILE229      0.0022
    107  CG2       32.1150   33.7690   14.7840 C.3   229  ILE229      0.0022
    108  CD1       33.3960   36.5070   14.6590 C.3   229  ILE229      0.0001
@<TRIPOS>BOND
     1     1     2    1
     2    15    13    1
     3    84    85    1
     4    13    14    1
     5    13    10    1
     6     2     5    1
     7     2     3    1
     8     5     6    1
     9     9     3   am
    10     9    10    1
    11    91    90    1
    12    86    85    1
    13    86    87    2
    14     3     4    2
    15    10    11    1
    16    85    88    1
    17    88    89    1
    18    11    12    2
    19    92    93    1
    20     8     6    1
    21     6     7    1
    22    89    90    1
    23    93    94    1
    24    93    96    1
    25   101    94   am
    26   101   102    1
    27   103   102    1
    28   103   104    2
    29   105   107    1
    30   105   102    1
    31   105   106    1
    32    94    95    2
    33   108   106    1
    34    96    97    1
    35    16    17    1
    36    22    20    1
    37    97    98    1
    38    20    17    1
    39    20    21    1
    40    17    18    1
    41    78    77    2
    42    99    98   ar
    43    70    69    2
    44    98   100   ar
    45    18    19    2
    46    73    71    1
    47    77    76    1
    48    76    75    1
    49    76    79    1
    50    69    75   am
    51    69    68    1
    52    80    79    1
    53    80    81    1
    54    68    71    1
    55    68    67    1
    56    71    72    1
    57    82    81    2
    58    72    74    1
    59    81    83   am
    60    23    24    1
    61    25    24    1
    62    25    26    2
    63    27    24    1
    64    27    28    1
    65    62    61    2
    66    31    30    1
    67    30    29    1
    68    29    28    1
    69    64    65    1
    70    64    63    1
    71    61    60    1
    72    65    66    1
    73    53    52    2
    74    60    63    1
    75    60    59    1
    76    42    40   ar
    77    42    41   ar
    78    40    38   ar
    79    41    39   ar
    80    38    37   ar
    81    39    37   ar
    82    52    59   am
    83    52    51    1
    84    37    36    1
    85    36    33    1
    86    51    54    1
    87    51    50    1
    88    54    55    1
    89    57    56    2
    90    33    32    1
    91    33    34    1
    92    55    56    1
    93    56    58   am
    94    46    45    2
    95    34    35    2
    96    49    47    1
    97    45    44    1
    98    44    47    1
    99    44    43    1
   100    47    48    1
