@<TRIPOS>MOLECULE
tmp/2piqA01.pdb
 110 102 0 0 0
SMALL
GASTEIGER

@<TRIPOS>ATOM
      1  N        -31.4470   -9.3610   10.0200 N.3    43  LEU43      -0.1231
      2  CA       -31.7330   -9.0060   11.4050 C.3    43  LEU43       0.1693
      3  C        -32.2650  -10.2100   12.1720 C.2    43  LEU43       0.2591
      4  O        -32.0100  -10.3590   13.3690 O.2    43  LEU43      -0.2718
      5  CB       -32.7570   -7.8660   11.4520 C.3    43  LEU43       0.0284
      6  CG       -32.8280   -7.0770   12.7600 C.3    43  LEU43       0.0019
      7  CD1      -31.4850   -6.3980   13.0180 C.3    43  LEU43       0.0001
      8  CD2      -33.9410   -6.0360   12.6770 C.3    43  LEU43       0.0001
      9  N        -32.9990  -11.0720   11.4820 N.am   44  VAL44      -0.1980
     10  CA       -33.5580  -12.2660   12.1040 C.3    44  VAL44       0.1595
     11  C        -32.4710  -13.2530   12.5070 C.2    44  VAL44       0.2287
     12  O        -32.5470  -13.8790   13.5650 O.2    44  VAL44      -0.2864
     13  CB       -34.5490  -12.9810   11.1490 C.3    44  VAL44       0.0276
     14  CG1      -34.9820  -14.3120   11.7430 C.3    44  VAL44       0.0022
     15  CG2      -35.7630  -12.0980   10.9020 C.3    44  VAL44       0.0022
     16  N        -30.2070  -11.9540   15.5270 N.3    47  VAL47      -0.1245
     17  CA       -30.8420  -12.1360   16.8310 C.3    47  VAL47       0.1561
     18  C        -30.6590  -13.5700   17.3200 C.2    47  VAL47       0.2260
     19  O        -30.2810  -13.7920   18.4710 O.2    47  VAL47      -0.2867
     20  CB       -32.3570  -11.8140   16.7660 C.3    47  VAL47       0.0252
     21  CG1      -32.9960  -12.0410   18.1180 C.3    47  VAL47       0.0019
     22  CG2      -32.5530  -10.3730   16.3180 C.3    47  VAL47       0.0019
     23  N        -28.2540  -14.6220   20.6370 N.3    51  LYS51      -0.1245
     24  CA       -28.7500  -15.3820   21.7860 C.3    51  LYS51       0.1561
     25  C        -28.0340  -16.7240   21.9540 C.2    51  LYS51       0.2260
     26  O        -28.0020  -17.2820   23.0450 O.2    51  LYS51      -0.2867
     27  CB       -30.2510  -15.6210   21.6470 C.3    51  LYS51       0.0271
     28  CG       -31.0580  -14.3490   21.4480 C.3    51  LYS51       0.0035
     29  CD       -32.5430  -14.5720   21.7090 C.3    51  LYS51       0.0206
     30  CE       -33.1530  -15.5740   20.7330 C.3    51  LYS51       0.1093
     31  NZ       -34.5510  -15.9220   21.1190 N.3    51  LYS51      -0.1314
     32  N        -24.1150  -14.9630   26.4710 N.3    56  PHE56      -0.1227
     33  CA       -24.9920  -13.8630   26.0910 C.3    56  PHE56       0.1736
     34  C        -26.1920  -13.7630   27.0240 C.2    56  PHE56       0.2595
     35  O        -26.7180  -12.6800   27.2650 O.2    56  PHE56      -0.2718
     36  CB       -25.4930  -14.0430   24.6560 C.3    56  PHE56       0.0547
     37  CG       -26.2560  -12.8560   24.1290 C.ar   56  PHE56      -0.0202
     38  CD1      -25.5840  -11.7010   23.7320 C.ar   56  PHE56      -0.0042
     39  CD2      -27.6410  -12.8830   24.0470 C.ar   56  PHE56      -0.0042
     40  CE1      -26.2920  -10.5940   23.2610 C.ar   56  PHE56      -0.0003
     41  CE2      -28.3480  -11.7830   23.5760 C.ar   56  PHE56      -0.0003
     42  CZ       -27.6730  -10.6350   23.1820 C.ar   56  PHE56      -0.0000
     43  N        -26.6180  -14.9070   27.5520 N.am   57  ARG57      -0.1980
     44  CA       -27.7670  -14.9470   28.4580 C.3    57  ARG57       0.1597
     45  C        -27.4070  -14.4520   29.8620 C.2    57  ARG57       0.2287
     46  O        -28.2160  -14.5330   30.7790 O.2    57  ARG57      -0.2864
     47  CB       -28.3360  -16.3690   28.5300 C.3    57  ARG57       0.0334
     48  CG       -28.6680  -16.9630   27.1720 C.3    57  ARG57       0.0492
     49  CD       -29.4900  -18.2430   27.3020 C.3    57  ARG57       0.2205
     50  NE       -30.9060  -18.0090   27.0120 N.pl3  57  ARG57      -0.0865
     51  CZ       -31.3760  -17.6160   25.8260 C.cat  57  ARG57       0.5346
     52  NH1      -30.5450  -17.4120   24.8160 N.pl3  57  ARG57       0.1354
     53  NH2      -32.6790  -17.4310   25.6480 N.pl3  57  ARG57       0.1354
     54  N        -32.0920   -9.0960   30.1080 N.3    61  VAL61      -0.1245
     55  CA       -32.9190   -9.1860   28.9110 C.3    61  VAL61       0.1561
     56  C        -33.0100   -7.8840   28.1280 C.2    61  VAL61       0.2260
     57  O        -33.0250   -7.8990   26.8970 O.2    61  VAL61      -0.2867
     58  CB       -34.3500   -9.6690   29.2610 C.3    61  VAL61       0.0252
     59  CG1      -35.0610   -8.6360   30.1220 C.3    61  VAL61       0.0019
     60  CG2      -35.1380   -9.9280   27.9750 C.3    61  VAL61       0.0019
     61  N        -29.7670   -7.1280   26.3580 N.3    64  GLN64      -0.1231
     62  CA       -29.5810   -8.1040   25.2840 C.3    64  GLN64       0.1698
     63  C        -30.1250   -7.5110   23.9940 C.2    64  GLN64       0.2592
     64  O        -29.4420   -7.4980   22.9690 O.2    64  GLN64      -0.2718
     65  CB       -30.3240   -9.4030   25.6010 C.3    64  GLN64       0.0381
     66  CG       -29.5990  -10.3100   26.5780 C.3    64  GLN64       0.0905
     67  CD       -30.3760  -11.5960   26.8640 C.2    64  GLN64       0.2608
     68  OE1      -30.9600  -12.1890   25.9600 O.2    64  GLN64      -0.2717
     69  NE2      -30.3550  -12.0410   28.1170 N.am   64  GLN64      -0.0878
     70  N        -31.3580   -7.0210   24.0500 N.am   65  MET65      -0.1979
     71  CA       -32.0040   -6.4160   22.8910 C.3    65  MET65       0.1605
     72  C        -31.3190   -5.1000   22.5330 C.2    65  MET65       0.2287
     73  O        -31.2400   -4.7250   21.3640 O.2    65  MET65      -0.2864
     74  CB       -33.4840   -6.1610   23.1940 C.3    65  MET65       0.0413
     75  CG       -34.1940   -5.3240   22.1340 C.3    65  MET65       0.0598
     76  SD       -35.8640   -4.8400   22.6280 S.3    65  MET65      -0.1393
     77  CE       -36.8590   -5.8730   21.5290 C.3    65  MET65       0.0692
     78  N        -28.0010   -5.3890   20.5690 N.3    68  ILE68      -0.1231
     79  CA       -28.3300   -5.8550   19.2290 C.3    68  ILE68       0.1692
     80  C        -28.8490   -4.7210   18.3550 C.2    68  ILE68       0.2591
     81  O        -28.4950   -4.6190   17.1780 O.2    68  ILE68      -0.2718
     82  CB       -29.3920   -6.9800   19.2740 C.3    68  ILE68       0.0266
     83  CG1      -28.7930   -8.2450   19.8990 C.3    68  ILE68       0.0019
     84  CG2      -29.8980   -7.2820   17.8810 C.3    68  ILE68       0.0020
     85  CD1      -29.7350   -9.4100   19.9350 C.3    68  ILE68       0.0001
     86  N        -29.6860   -3.8680   18.9320 N.am   69  GLN69      -0.1979
     87  CA       -30.2630   -2.7440   18.2150 C.3    69  GLN69       0.1601
     88  C        -29.2660   -1.6160   17.9550 C.2    69  GLN69       0.2287
     89  O        -29.5430   -0.7140   17.1590 O.2    69  GLN69      -0.2864
     90  CB       -31.4700   -2.2030   18.9820 C.3    69  GLN69       0.0394
     91  CG       -32.7330   -3.0290   18.8110 C.3    69  GLN69       0.0908
     92  CD       -33.7860   -2.7110   19.8570 C.2    69  GLN69       0.2608
     93  OE1      -34.9590   -3.0490   19.6920 O.2    69  GLN69      -0.2717
     94  NE2      -33.3720   -2.0770   20.9490 N.am   69  GLN69      -0.0878
     95  N        -39.5840   -3.8850   11.1660 N.3   225  MET225     -0.1245
     96  CA       -38.5220   -3.8070   12.1670 C.3   225  MET225      0.1570
     97  C        -37.3920   -2.8500   11.8160 C.2   225  MET225      0.2261
     98  O        -36.7820   -2.2610   12.6980 O.2   225  MET225     -0.2867
     99  CB       -37.9640   -5.2060   12.4400 C.3   225  MET225      0.0387
    100  CG       -38.7630   -5.9700   13.4930 C.3   225  MET225      0.0595
    101  SD       -38.4870   -7.7470   13.4630 S.3   225  MET225     -0.1393
    102  CE       -39.9050   -8.2870   12.4800 C.3   225  MET225      0.0692
    103  N        -36.3190    0.3660   14.2790 N.3   229  ILE229     -0.1245
    104  CA       -34.9730    0.4060   14.8380 C.3   229  ILE229      0.1561
    105  C        -34.2110    1.6500   14.3760 C.2   229  ILE229      0.2260
    106  O        -33.4700    2.2610   15.1490 O.2   229  ILE229     -0.2867
    107  CB       -34.1570   -0.8510   14.4400 C.3   229  ILE229      0.0252
    108  CG1      -34.5900   -2.0400   15.3020 C.3   229  ILE229      0.0019
    109  CG2      -32.6600   -0.5860   14.5990 C.3   229  ILE229      0.0019
    110  CD1      -33.9190   -3.3530   14.9260 C.3   229  ILE229      0.0001
@<TRIPOS>BOND
     1     1     2    1
     2    15    13    1
     3    13    14    1
     4    13    10    1
     5    95    96    1
     6     2     5    1
     7     2     3    1
     8     5     6    1
     9     9    10    1
    10     9     3   am
    11    97    96    1
    12    97    98    2
    13    10    11    1
    14    96    99    1
    15     3     4    2
    16    99   100    1
    17   102   101    1
    18    11    12    2
    19     8     6    1
    20     6     7    1
    21   101   100    1
    22   103   104    1
    23   105   104    1
    24   105   106    2
    25   107   109    1
    26   107   104    1
    27   107   108    1
    28   110   108    1
    29    16    17    1
    30    22    20    1
    31    20    17    1
    32    20    21    1
    33    17    18    1
    34    89    88    2
    35    81    80    2
    36    18    19    2
    37    84    82    1
    38    88    87    1
    39    87    86    1
    40    87    90    1
    41    80    86   am
    42    80    79    1
    43    91    90    1
    44    91    92    1
    45    79    82    1
    46    79    78    1
    47    82    83    1
    48    93    92    2
    49    92    94   am
    50    83    85    1
    51    23    24    1
    52    30    31    1
    53    30    29    1
    54    73    72    2
    55    28    27    1
    56    28    29    1
    57    77    76    1
    58    27    24    1
    59    24    25    1
    60    25    26    2
    61    75    76    1
    62    75    74    1
    63    72    71    1
    64    71    74    1
    65    71    70    1
    66    64    63    2
    67    42    40   ar
    68    42    41   ar
    69    40    38   ar
    70    41    39   ar
    71    38    37   ar
    72    63    70   am
    73    63    62    1
    74    39    37   ar
    75    37    36    1
    76    36    33    1
    77    52    51    1
    78    62    65    1
    79    62    61    1
    80    65    66    1
    81    53    51    1
    82    51    50    2
    83    68    67    2
    84    33    32    1
    85    33    34    1
    86    66    67    1
    87    67    69   am
    88    57    56    2
    89    50    49    1
    90    34    35    2
    91    34    43   am
    92    48    49    1
    93    48    47    1
    94    43    44    1
    95    60    58    1
    96    56    55    1
    97    44    47    1
    98    44    45    1
    99    55    58    1
   100    55    54    1
   101    58    59    1
   102    45    46    2
