@<TRIPOS>MOLECULE
tmp/2piuA01.pdb
 92 84 0 0 0
SMALL
GASTEIGER

@<TRIPOS>ATOM
      1  N         31.2230    9.5230   10.5330 N.3    42  LEU42      -0.1231
      2  CA        31.5440    9.2020   11.9180 C.3    42  LEU42       0.1693
      3  C         31.9980   10.4490   12.6700 C.2    42  LEU42       0.2591
      4  O         31.6180   10.6640   13.8220 O.2    42  LEU42      -0.2718
      5  CB        32.6430    8.1440   11.9960 C.3    42  LEU42       0.0284
      6  CG        32.2010    6.7270   12.3550 C.3    42  LEU42       0.0019
      7  CD1       33.4440    5.9020   12.6770 C.3    42  LEU42       0.0001
      8  CD2       31.2460    6.7500   13.5640 C.3    42  LEU42       0.0001
      9  N         32.8130   11.2660   12.0120 N.am   43  VAL43      -0.1980
     10  CA        33.3150   12.4890   12.6170 C.3    43  VAL43       0.1595
     11  C         32.1750   13.4210   13.0230 C.2    43  VAL43       0.2287
     12  O         32.1720   13.9580   14.1350 O.2    43  VAL43      -0.2864
     13  CB        34.2650   13.2510   11.6510 C.3    43  VAL43       0.0276
     14  CG1       34.8110   14.5080   12.3420 C.3    43  VAL43       0.0022
     15  CG2       35.4160   12.3380   11.2080 C.3    43  VAL43       0.0022
     16  N         30.1240   12.0400   16.0240 N.3    46  VAL46      -0.1231
     17  CA        30.7550   12.2650   17.3220 C.3    46  VAL46       0.1692
     18  C         30.4940   13.7050   17.8040 C.2    46  VAL46       0.2591
     19  O         30.0810   13.9150   18.9440 O.2    46  VAL46      -0.2718
     20  CB        32.2860   11.9950   17.2660 C.3    46  VAL46       0.0266
     21  CG1       32.9290   12.3390   18.6000 C.3    46  VAL46       0.0020
     22  CG2       32.5430   10.5280   16.9290 C.3    46  VAL46       0.0020
     23  N         30.7100   14.6830   16.9250 N.am   47  LYS47      -0.1980
     24  CA        30.4930   16.0940   17.2680 C.3    47  LYS47       0.1596
     25  C         29.0290   16.3910   17.5780 C.2    47  LYS47       0.2287
     26  O         28.7220   17.0890   18.5400 O.2    47  LYS47      -0.2864
     27  CB        30.9790   16.9920   16.1280 C.3    47  LYS47       0.0298
     28  CG        32.4830   16.9450   15.9220 C.3    47  LYS47       0.0038
     29  CD        32.9110   17.7900   14.7290 C.3    47  LYS47       0.0206
     30  CE        34.4240   17.8990   14.6300 C.3    47  LYS47       0.1093
     31  NZ        34.8150   18.8870   13.5790 N.3    47  LYS47      -0.1314
     32  N         28.0800   14.7730   21.0060 N.3    50  LYS50      -0.1245
     33  CA        28.6010   15.5530   22.1250 C.3    50  LYS50       0.1561
     34  C         27.9510   16.9340   22.2410 C.2    50  LYS50       0.2260
     35  O         28.1950   17.6600   23.1980 O.2    50  LYS50      -0.2867
     36  CB        30.1170   15.7010   21.9920 C.3    50  LYS50       0.0271
     37  CG        30.8660   14.3740   22.0070 C.3    50  LYS50       0.0035
     38  CD        32.3210   14.5750   21.6160 C.3    50  LYS50       0.0206
     39  CE        33.2780   14.3160   22.7680 C.3    50  LYS50       0.1093
     40  NZ        33.3940   12.8680   23.0830 N.3    50  LYS50      -0.1314
     41  N         27.2720   14.7980   27.2740 N.3    56  ARG56      -0.1245
     42  CA        28.5700   14.9750   27.9210 C.3    56  ARG56       0.1563
     43  C         28.5690   14.6000   29.4030 C.2    56  ARG56       0.2260
     44  O         29.6230   14.5320   30.0280 O.2    56  ARG56      -0.2867
     45  CB        29.0630   16.4210   27.7640 C.3    56  ARG56       0.0307
     46  CG        29.8160   16.7060   26.4670 C.3    56  ARG56       0.0489
     47  CD        30.4370   18.1030   26.5010 C.3    56  ARG56       0.2205
     48  NE        31.1310   18.4570   25.2600 N.pl3  56  ARG56      -0.0865
     49  CZ        32.3020   17.9530   24.8680 C.cat  56  ARG56       0.5346
     50  NH1       32.9380   17.0580   25.6160 N.pl3  56  ARG56       0.1354
     51  NH2       32.8430   18.3570   23.7270 N.pl3  56  ARG56       0.1354
     52  N         31.6220    6.9290   24.0900 N.3    64  MET64      -0.1245
     53  CA        32.2420    6.2910   22.9410 C.3    64  MET64       0.1570
     54  C         31.5230    4.9730   22.6620 C.2    64  MET64       0.2261
     55  O         31.3270    4.5950   21.5090 O.2    64  MET64      -0.2867
     56  CB        33.7340    6.0510   23.2190 C.3    64  MET64       0.0387
     57  CG        34.5040    5.4180   22.0640 C.3    64  MET64       0.0595
     58  SD        36.3180    5.4380   22.2780 S.3    64  MET64      -0.1393
     59  CE        36.8460    6.1350   20.7210 C.3    64  MET64       0.0692
     60  N         28.1060    5.5410   20.7800 N.3    67  ILE67      -0.1231
     61  CA        28.3540    6.0290   19.4300 C.3    67  ILE67       0.1692
     62  C         28.8220    4.8600   18.5550 C.2    67  ILE67       0.2591
     63  O         28.3410    4.6700   17.4280 O.2    67  ILE67      -0.2718
     64  CB        29.4320    7.1560   19.4530 C.3    67  ILE67       0.0266
     65  CG1       28.8210    8.4500   20.0090 C.3    67  ILE67       0.0019
     66  CG2       29.9850    7.3940   18.0610 C.3    67  ILE67       0.0020
     67  CD1       29.8620    9.4810   20.4300 C.3    67  ILE67       0.0001
     68  N         29.7400    4.0580   19.0920 N.am   68  GLN68      -0.1979
     69  CA        30.2730    2.9180   18.3530 C.3    68  GLN68       0.1601
     70  C         29.2460    1.8230   18.0590 C.2    68  GLN68       0.2287
     71  O         29.3920    1.0880   17.0840 O.2    68  GLN68      -0.2864
     72  CB        31.4790    2.3410   19.0980 C.3    68  GLN68       0.0394
     73  CG        32.6360    3.3330   19.1530 C.3    68  GLN68       0.0908
     74  CD        33.7680    2.8830   20.0600 C.2    68  GLN68       0.2608
     75  OE1       33.5350    2.3820   21.1610 O.2    68  GLN68      -0.2717
     76  NE2       34.9960    3.0750   19.6100 N.am   68  GLN68      -0.0878
     77  N         39.1930    4.2030   11.2910 N.3   224  MET224     -0.1245
     78  CA        38.1240    4.1680   12.2930 C.3   224  MET224      0.1570
     79  C         37.0800    3.0780   12.0100 C.2   224  MET224      0.2261
     80  O         36.6860    2.3320   12.9030 O.2   224  MET224     -0.2867
     81  CB        37.4280    5.5330   12.3740 C.3   224  MET224      0.0387
     82  CG        38.2970    6.6790   12.9030 C.3   224  MET224      0.0595
     83  SD        37.4030    8.2710   12.9370 S.3   224  MET224     -0.1393
     84  CE        38.2930    9.2370   11.7150 C.3   224  MET224      0.0692
     85  N         36.3020   -0.2200   14.4940 N.3   228  ILE228     -0.1245
     86  CA        34.9770   -0.3360   15.0830 C.3   228  ILE228      0.1561
     87  C         34.2380   -1.5780   14.6030 C.2   228  ILE228      0.2260
     88  O         33.5080   -2.2150   15.3630 O.2   228  ILE228     -0.2867
     89  CB        34.1110    0.8870   14.7450 C.3   228  ILE228      0.0252
     90  CG1       34.5550    2.0840   15.5830 C.3   228  ILE228      0.0019
     91  CG2       32.6370    0.5840   15.0030 C.3   228  ILE228      0.0019
     92  CD1       33.7620    3.3180   15.2910 C.3   228  ILE228      0.0001
@<TRIPOS>BOND
     1     1     2    1
     2    15    13    1
     3    77    78    1
     4    13    14    1
     5    13    10    1
     6    84    83    1
     7     2     5    1
     8     2     3    1
     9     5     6    1
    10    79    78    1
    11    79    80    2
    12     9    10    1
    13     9     3   am
    14    78    81    1
    15     6     7    1
    16     6     8    1
    17    81    82    1
    18    10    11    1
    19     3     4    2
    20    82    83    1
    21    11    12    2
    22    31    30    1
    23    85    86    1
    24    87    86    1
    25    87    88    2
    26    30    29    1
    27    29    28    1
    28    89    91    1
    29    89    86    1
    30    89    90    1
    31    92    90    1
    32    28    27    1
    33    16    17    1
    34    27    24    1
    35    23    24    1
    36    23    18   am
    37    22    20    1
    38    71    70    2
    39    20    17    1
    40    20    21    1
    41    24    25    1
    42    17    18    1
    43    63    62    2
    44    25    26    2
    45    18    19    2
    46    70    69    1
    47    66    64    1
    48    69    68    1
    49    69    72    1
    50    62    68   am
    51    62    61    1
    52    72    73    1
    53    73    74    1
    54    61    64    1
    55    61    60    1
    56    64    65    1
    57    76    74   am
    58    65    67    1
    59    74    75    2
    60    59    58    1
    61    32    33    1
    62    55    54    2
    63    38    37    1
    64    38    39    1
    65    36    37    1
    66    36    33    1
    67    57    58    1
    68    57    56    1
    69    33    34    1
    70    34    35    2
    71    54    53    1
    72    39    40    1
    73    53    56    1
    74    53    52    1
    75    51    49    1
    76    49    48    2
    77    49    50    1
    78    48    47    1
    79    46    47    1
    80    46    45    1
    81    41    42    1
    82    45    42    1
    83    42    43    1
    84    43    44    2
