@<TRIPOS>MOLECULE
tmp/2piwA02.pdb
 113 110 0 0 0
SMALL
GASTEIGER

@<TRIPOS>ATOM
      1  N         10.3620   25.9270   20.9850 N.3     1  PRO1       -0.2102
      2  CA        10.9700   25.5530   22.2840 C.3     1  PRO1        0.1504
      3  C         12.4800   25.3370   22.1630 C.2     1  PRO1        0.2576
      4  O         12.9960   25.0450   21.0810 O.2     1  PRO1       -0.2718
      5  CB        10.2780   24.2720   22.7580 C.3     1  PRO1        0.0282
      6  CG         9.8130   23.6730   21.4320 C.3     1  PRO1        0.0208
      7  CD         9.3770   24.8950   20.5880 C.3     1  PRO1        0.0893
      8  N         13.1770   25.4810   23.2840 N.am    2  ILE2       -0.1966
      9  CA        14.6220   25.3180   23.3320 C.3     2  ILE2        0.1727
     10  C         15.1030   24.0280   22.6730 C.2     2  ILE2        0.2616
     11  O         15.8190   24.0700   21.6720 O.2     2  ILE2       -0.2715
     12  CB        15.1420   25.3390   24.7910 C.3     2  ILE2        0.0290
     13  CG1       14.7510   26.6600   25.4600 C.3     2  ILE2        0.0022
     14  CG2       16.6410   25.1370   24.8250 C.3     2  ILE2        0.0023
     15  CD1       15.1450   27.8920   24.6580 C.3     2  ILE2        0.0001
     16  N         14.7140   22.9000   23.2330 N.am    3  PHE3       -0.1974
     17  CA        15.1160   21.5960   22.7210 C.3     3  PHE3        0.1639
     18  C         15.0630   21.5170   21.2020 C.2     3  PHE3        0.2290
     19  O         16.0340   21.1250   20.5460 O.2     3  PHE3       -0.2864
     20  CB        14.2320   20.4900   23.3050 C.3     3  PHE3        0.0560
     21  CG        14.6510   19.1080   22.9110 C.ar    3  PHE3       -0.0200
     22  CD1       15.7840   18.5310   23.4640 C.ar    3  PHE3       -0.0042
     23  CD2       13.9220   18.3850   21.9690 C.ar    3  PHE3       -0.0042
     24  CE1       16.1960   17.2500   23.0870 C.ar    3  PHE3       -0.0003
     25  CE2       14.3220   17.1020   21.5840 C.ar    3  PHE3       -0.0003
     26  CZ        15.4630   16.5340   22.1440 C.ar    3  PHE3       -0.0000
     27  N         21.9050   17.7960   23.7530 N.3    53  PRO53      -0.2102
     28  CA        21.5130   18.1310   25.1230 C.3    53  PRO53       0.1504
     29  C         21.6660   16.9740   26.1040 C.2    53  PRO53       0.2576
     30  O         21.0010   15.9510   25.9770 O.2    53  PRO53      -0.2718
     31  CB        20.0610   18.5690   24.9780 C.3    53  PRO53       0.0282
     32  CG        20.0350   19.1760   23.6080 C.3    53  PRO53       0.0208
     33  CD        20.8410   18.1640   22.8040 C.3    53  PRO53       0.0893
     34  N         22.5490   17.1520   27.0890 N.am   54  GLY54      -0.1957
     35  CA        22.7550   16.1270   28.1030 C.3    54  GLY54       0.1869
     36  C         23.7060   15.0020   27.7610 C.2    54  GLY54       0.2309
     37  O         24.0420   14.2010   28.6270 O.2    54  GLY54      -0.2863
     38  N         26.9980   14.4290   29.6550 N.3    57  ASN57      -0.1240
     39  CA        26.8270   14.1040   31.0640 C.3    57  ASN57       0.1653
     40  C         26.9600   12.6140   31.3290 C.2    57  ASN57       0.2266
     41  O         27.0020   12.1790   32.4720 O.2    57  ASN57      -0.2867
     42  CB        25.4630   14.5950   31.5590 C.3    57  ASN57       0.1155
     43  CG        25.5600   15.9310   32.2830 C.2    57  ASN57       0.2627
     44  OD1       26.1290   16.9040   31.7620 O.2    57  ASN57      -0.2716
     45  ND2       25.0000   15.9880   33.4930 N.am   57  ASN57      -0.0877
     46  N         21.8900    7.0120   34.5300 N.3   156  PHE156     -0.1241
     47  CA        21.8440    8.2680   33.7940 C.3   156  PHE156      0.1605
     48  C         21.2960    8.0750   32.3910 C.2   156  PHE156      0.2264
     49  O         20.4160    8.8190   31.9560 O.2   156  PHE156     -0.2867
     50  CB        23.2470    8.8830   33.7070 C.3   156  PHE156      0.0534
     51  CG        23.2410   10.3790   33.6500 C.ar  156  PHE156     -0.0203
     52  CD1       23.3200   11.1310   34.8200 C.ar  156  PHE156     -0.0042
     53  CD2       23.1130   11.0440   32.4300 C.ar  156  PHE156     -0.0042
     54  CE1       23.2790   12.5240   34.7810 C.ar  156  PHE156     -0.0003
     55  CE2       23.0690   12.4370   32.3760 C.ar  156  PHE156     -0.0003
     56  CZ        23.1510   13.1790   33.5530 C.ar  156  PHE156     -0.0000
     57  N         17.6050    7.7990   32.2150 N.3   159  GLU159     -0.1231
     58  CA        16.9240    9.0650   32.4280 C.3   159  GLU159      0.1699
     59  C         17.0900    9.9850   31.2140 C.2   159  GLU159      0.2592
     60  O         16.1570   10.6730   30.8120 O.2   159  GLU159     -0.2718
     61  CB        17.4580    9.7610   33.6790 C.3   159  GLU159      0.0402
     62  CG        16.7200   11.0500   34.0270 C.3   159  GLU159      0.1161
     63  CD        17.4880   12.2920   33.6230 C.2   159  GLU159      0.3649
     64  OE1       18.1610   12.8880   34.5080 O.co2 159  GLU159     -0.2457
     65  OE2       17.4410   12.6790   32.4260 O.co2 159  GLU159     -0.2457
     66  N         18.2830    9.9810   30.6260 N.am  160  LEU160     -0.1980
     67  CA        18.5610   10.7940   29.4560 C.3   160  LEU160      0.1596
     68  C         17.6330   10.3560   28.3330 C.2   160  LEU160      0.2287
     69  O         17.0140   11.1760   27.6710 O.2   160  LEU160     -0.2864
     70  CB        20.0160   10.6280   29.0400 C.3   160  LEU160      0.0297
     71  CG        20.5600   11.6600   28.0440 C.3   160  LEU160      0.0022
     72  CD1       20.4160   13.0630   28.6130 C.3   160  LEU160      0.0001
     73  CD2       22.0300   11.3640   27.7420 C.3   160  LEU160      0.0001
     74  N         14.0900   11.2910   28.9750 N.3   163  ASN163     -0.1225
     75  CA        13.8860   12.7090   28.7370 C.3   163  ASN163      0.1785
     76  C         13.7850   13.0220   27.2520 C.2   163  ASN163      0.2597
     77  O         13.1930   14.0230   26.8600 O.2   163  ASN163     -0.2718
     78  CB        15.0080   13.5310   29.3660 C.3   163  ASN163      0.1169
     79  CG        14.6480   14.0500   30.7510 C.2   163  ASN163      0.2627
     80  OD1       14.7220   13.3270   31.7530 O.2   163  ASN163     -0.2716
     81  ND2       14.2320   15.3130   30.8130 N.am  163  ASN163     -0.0877
     82  N         14.3650   12.1750   26.4230 N.am  164  TYR164     -0.1976
     83  CA        14.3090   12.3780   24.9720 C.3   164  TYR164      0.1639
     84  C         13.0030   11.8500   24.4250 C.2   164  TYR164      0.2290
     85  O         12.4860   12.3580   23.4370 O.2   164  TYR164     -0.2864
     86  CB        15.4740   11.6800   24.2670 C.3   164  TYR164      0.0560
     87  CG        16.7020   12.5560   24.1100 C.ar  164  TYR164     -0.0198
     88  CD1       17.6010   12.7480   25.1670 C.ar  164  TYR164     -0.0009
     89  CD2       16.9500   13.2140   22.9150 C.ar  164  TYR164     -0.0009
     90  CE1       18.7130   13.5720   25.0220 C.ar  164  TYR164      0.0417
     91  CE2       18.0620   14.0500   22.7580 C.ar  164  TYR164      0.0417
     92  CZ        18.9380   14.2210   23.8190 C.ar  164  TYR164      0.1957
     93  OH        20.0300   15.0410   23.6780 O.3   164  TYR164     -0.2866
     94  N         10.3930   14.3420   24.8660 N.3   167  GLU167     -0.1245
     95  CA        10.5200   15.4000   23.8760 C.3   167  GLU167      0.1567
     96  C          9.6890   15.0000   22.6630 C.2   167  GLU167      0.2260
     97  O          8.9400   15.7990   22.1170 O.2   167  GLU167     -0.2867
     98  CB        11.9790   15.5810   23.4700 C.3   167  GLU167      0.0388
     99  CG        12.8540   16.2050   24.5400 C.3   167  GLU167      0.1160
    100  CD        12.3070   17.5300   25.0310 C.2   167  GLU167      0.3649
    101  OE1       11.7010   18.2610   24.2180 O.co2 167  GLU167     -0.2457
    102  OE2       12.4920   17.8500   26.2250 O.co2 167  GLU167     -0.2457
    103  N          6.1100   15.8150   23.5220 N.3   170  ARG170     -0.1245
    104  CA         5.8050   17.2320   23.3850 C.3   170  ARG170      0.1563
    105  C          5.6710   17.5810   21.9080 C.2   170  ARG170      0.2260
    106  O          4.7320   18.2620   21.5010 O.2   170  ARG170     -0.2867
    107  CB         6.9010   18.0950   24.0130 C.3   170  ARG170      0.0307
    108  CG         7.1950   17.7790   25.4690 C.3   170  ARG170      0.0489
    109  CD         7.6270   19.0290   26.2260 C.3   170  ARG170      0.2205
    110  NE         8.6040   19.8140   25.4730 N.pl3 170  ARG170     -0.0865
    111  CZ         9.2450   20.8700   25.9660 C.cat 170  ARG170      0.5346
    112  NH1        9.0240   21.2670   27.2170 N.pl3 170  ARG170      0.1354
    113  NH2       10.1170   21.5350   25.2040 N.pl3 170  ARG170      0.1354
@<TRIPOS>BOND
     1    19    18    2
     2     7     1    1
     3     7     6    1
     4     1     2    1
     5     4     3    2
     6    18    17    1
     7     6     5    1
     8   106   105    2
     9    25    23   ar
    10    25    26   ar
    11    11    10    2
    12   105   104    1
    13    23    21   ar
    14    97    96    2
    15    26    24   ar
    16     3     2    1
    17     3     8   am
    18     2     5    1
    19    96    95    1
    20    10    16   am
    21    10     9    1
    22    17    16    1
    23    17    20    1
    24    91    89   ar
    25    91    92   ar
    26    33    32    1
    27    33    27    1
    28    21    20    1
    29    21    22   ar
    30    89    87   ar
    31    24    22   ar
    32     8     9    1
    33     9    12    1
    34   104   103    1
    35   104   107    1
    36    85    84    2
    37    98    95    1
    38    98    99    1
    39    32    31    1
    40    93    92    1
    41    27    28    1
    42    92    90   ar
    43    95    94    1
    44   107   108    1
    45    87    86    1
    46    87    88   ar
    47   101   100   ar
    48    86    83    1
    49    84    83    1
    50    99   100    1
    51    15    13    1
    52    12    14    1
    53    12    13    1
    54    83    82    1
    55    31    28    1
    56    90    88   ar
    57   100   102   ar
    58    28    29    1
    59   113   111    1
    60   108   109    1
    61   110   111    2
    62   110   109    1
    63   111   112    1
    64    30    29    2
    65    29    34   am
    66    82    76   am
    67    77    76    2
    68    34    35    1
    69    76    75    1
    70    69    68    2
    71    73    71    1
    72    36    35    1
    73    36    37    2
    74    71    72    1
    75    71    70    1
    76    68    67    1
    77    75    74    1
    78    75    78    1
    79    70    67    1
    80    78    79    1
    81    67    66    1
    82    38    39    1
    83    66    59   am
    84    79    81   am
    85    79    80    2
    86    60    59    2
    87    39    40    1
    88    39    42    1
    89    59    58    1
    90    40    41    2
    91    42    43    1
    92    44    43    2
    93    49    48    2
    94    57    58    1
    95    43    45   am
    96    55    53   ar
    97    55    56   ar
    98    48    47    1
    99    65    63   ar
   100    58    61    1
   101    53    51   ar
   102    56    54   ar
   103    63    62    1
   104    63    64   ar
   105    51    50    1
   106    51    52   ar
   107    61    62    1
   108    50    47    1
   109    47    46    1
   110    54    52   ar
