@<TRIPOS>MOLECULE
tmp/2piwA01.pdb
 101 93 0 0 0
SMALL
GASTEIGER

@<TRIPOS>ATOM
      1  N         30.9290    9.5220   10.1730 N.3    42  LEU42      -0.1231
      2  CA        31.2070    9.2100   11.5640 C.3    42  LEU42       0.1693
      3  C         31.7300   10.4430   12.3000 C.2    42  LEU42       0.2591
      4  O         31.4280   10.6550   13.4800 O.2    42  LEU42      -0.2718
      5  CB        32.2430    8.0820   11.6650 C.3    42  LEU42       0.0284
      6  CG        31.8680    6.8680   12.5260 C.3    42  LEU42       0.0019
      7  CD1       33.1250    6.0550   12.7980 C.3    42  LEU42       0.0001
      8  CD2       31.2470    7.3190   13.8380 C.3    42  LEU42       0.0001
      9  N         32.5160   11.2520   11.5910 N.am   43  VAL43      -0.1980
     10  CA        33.0830   12.4580   12.1730 C.3    43  VAL43       0.1595
     11  C         31.9940   13.4700   12.5240 C.2    43  VAL43       0.2287
     12  O         32.0550   14.1160   13.5690 O.2    43  VAL43      -0.2864
     13  CB        34.0860   13.1220   11.1940 C.3    43  VAL43       0.0276
     14  CG1       34.6430   14.4040   11.8100 C.3    43  VAL43       0.0022
     15  CG2       35.2100   12.1540   10.8700 C.3    43  VAL43       0.0022
     16  N         29.8950   12.2130   15.6740 N.3    46  VAL46      -0.1231
     17  CA        30.5290   12.4240   16.9640 C.3    46  VAL46       0.1692
     18  C         30.3150   13.8660   17.4420 C.2    46  VAL46       0.2591
     19  O         29.9640   14.1010   18.5940 O.2    46  VAL46      -0.2718
     20  CB        32.0550   12.1600   16.8900 C.3    46  VAL46       0.0266
     21  CG1       32.6910   12.3580   18.2480 C.3    46  VAL46       0.0020
     22  CG2       32.3030   10.7400   16.3920 C.3    46  VAL46       0.0020
     23  N         30.5310   14.8230   16.5420 N.am   47  LYS47      -0.1980
     24  CA        30.3500   16.2280   16.8630 C.3    47  LYS47       0.1596
     25  C         28.8770   16.5050   17.1420 C.2    47  LYS47       0.2287
     26  O         28.5330   17.2250   18.0790 O.2    47  LYS47      -0.2864
     27  CB        30.8180   17.1050   15.7070 C.3    47  LYS47       0.0298
     28  CG        32.2990   16.9750   15.3840 C.3    47  LYS47       0.0038
     29  CD        32.6780   17.8660   14.2020 C.3    47  LYS47       0.0206
     30  CE        34.0820   17.5480   13.7020 C.3    47  LYS47       0.1093
     31  NZ        34.4610   18.4160   12.5510 N.3    47  LYS47      -0.1314
     32  N         28.0200   15.1310   20.6490 N.3    50  LYS50      -0.1245
     33  CA        28.5810   15.9640   21.7070 C.3    50  LYS50       0.1561
     34  C         27.7370   17.2340   21.9100 C.2    50  LYS50       0.2260
     35  O         27.5230   17.6680   23.0410 O.2    50  LYS50      -0.2867
     36  CB        30.0110   16.3760   21.3490 C.3    50  LYS50       0.0271
     37  CG        30.9830   15.2160   21.2020 C.3    50  LYS50       0.0035
     38  CD        31.2920   14.5820   22.5410 C.3    50  LYS50       0.0206
     39  CE        32.3170   13.4650   22.3820 C.3    50  LYS50       0.1093
     40  NZ        32.5910   12.7510   23.6680 N.3    50  LYS50      -0.1314
     41  N         26.8990   15.1280   27.0140 N.3    56  ARG56      -0.1245
     42  CA        28.1760   15.3100   27.7100 C.3    56  ARG56       0.1563
     43  C         28.0900   15.0310   29.2120 C.2    56  ARG56       0.2260
     44  O         29.0050   15.3600   29.9600 O.2    56  ARG56      -0.2867
     45  CB        28.7080   16.7340   27.4980 C.3    56  ARG56       0.0307
     46  CG        29.7340   16.8710   26.3830 C.3    56  ARG56       0.0489
     47  CD        30.2210   18.3120   26.2960 C.3    56  ARG56       0.2205
     48  NE        30.8740   18.6130   25.0160 N.pl3  56  ARG56      -0.0865
     49  CZ        32.0930   18.1980   24.6740 C.cat  56  ARG56       0.5346
     50  NH1       32.8050   17.4570   25.5110 N.pl3  56  ARG56       0.1354
     51  NH2       32.5940   18.5330   23.4890 N.pl3  56  ARG56       0.1354
     52  N         31.2440    7.0810   23.9280 N.3    64  MET64      -0.1245
     53  CA        31.8890    6.4550   22.7850 C.3    64  MET64       0.1570
     54  C         31.2300    5.1160   22.4650 C.2    64  MET64       0.2261
     55  O         31.2190    4.6810   21.3150 O.2    64  MET64      -0.2867
     56  CB        33.3810    6.2690   23.0700 C.3    64  MET64       0.0387
     57  CG        34.1810    5.8060   21.8630 C.3    64  MET64       0.0595
     58  SD        35.8810    6.4510   21.8850 S.3    64  MET64      -0.1393
     59  CE        36.7350    5.1420   22.7480 C.3    64  MET64       0.0692
     60  N         27.7890    5.5530   20.6380 N.3    67  ILE67      -0.1231
     61  CA        28.0830    6.0620   19.3020 C.3    67  ILE67       0.1692
     62  C         28.6170    4.9700   18.3920 C.2    67  ILE67       0.2591
     63  O         28.3400    4.9650   17.1880 O.2    67  ILE67      -0.2718
     64  CB        29.1240    7.2210   19.3570 C.3    67  ILE67       0.0266
     65  CG1       28.4650    8.4850   19.8750 C.3    67  ILE67       0.0019
     66  CG2       29.7220    7.4480   17.9850 C.3    67  ILE67       0.0020
     67  CD1       29.4070    9.6470   20.0410 C.3    67  ILE67       0.0001
     68  N         29.3910    4.0430   18.9580 N.am   68  GLN68      -0.1979
     69  CA        29.9630    2.9490   18.1890 C.3    68  GLN68       0.1601
     70  C         28.9670    1.8020   17.9790 C.2    68  GLN68       0.2287
     71  O         29.2230    0.8990   17.1840 O.2    68  GLN68      -0.2864
     72  CB        31.2240    2.4280   18.8730 C.3    68  GLN68       0.0394
     73  CG        32.3780    3.4090   18.8600 C.3    68  GLN68       0.0908
     74  CD        33.5080    2.9910   19.7940 C.2    68  GLN68       0.2608
     75  OE1       33.2650    2.3850   20.8400 O.2    68  GLN68      -0.2717
     76  NE2       34.7380    3.3410   19.4390 N.am   68  GLN68      -0.0878
     77  N         39.2890    4.1010   11.3370 N.3   224  MET224     -0.1245
     78  CA        38.2030    4.0330   12.3160 C.3   224  MET224      0.1570
     79  C         37.0900    3.0680   11.9320 C.2   224  MET224      0.2261
     80  O         36.4990    2.4210   12.7870 O.2   224  MET224     -0.2867
     81  CB        37.6080    5.4340   12.5490 C.3   224  MET224      0.0387
     82  CG        38.5200    6.3590   13.3570 C.3   224  MET224      0.0595
     83  SD        37.6840    7.8620   13.8820 S.3   224  MET224     -0.1393
     84  CE        37.8740    8.8950   12.4250 C.3   224  MET224      0.0692
     85  N         38.2190   -0.4490   12.7000 N.3   227  GLU227     -0.1231
     86  CA        38.4190   -0.6290   14.1230 C.3   227  GLU227      0.1699
     87  C         37.0970   -0.8630   14.8500 C.2   227  GLU227      0.2592
     88  O         37.0310   -1.6380   15.8080 O.2   227  GLU227     -0.2718
     89  CB        39.1300    0.5860   14.7070 C.3   227  GLU227      0.0402
     90  CG        39.7430    0.3570   16.0800 C.3   227  GLU227      0.1161
     91  CD        40.5400    1.5610   16.5700 C.2   227  GLU227      0.3649
     92  OE1       41.3040    1.4140   17.5560 O.co2 227  GLU227     -0.2457
     93  OE2       40.4030    2.6640   15.9780 O.co2 227  GLU227     -0.2457
     94  N         36.0390   -0.1880   14.3920 N.am  228  ILE228     -0.1980
     95  CA        34.7150   -0.3220   15.0060 C.3   228  ILE228      0.1595
     96  C         34.0310   -1.6120   14.5740 C.2   228  ILE228      0.2287
     97  O         33.5020   -2.3560   15.4050 O.2   228  ILE228     -0.2864
     98  CB        33.8060    0.8510   14.6270 C.3   228  ILE228      0.0276
     99  CG1       34.2810    2.1340   15.3270 C.3   228  ILE228      0.0022
    100  CG2       32.3580    0.5470   15.0190 C.3   228  ILE228      0.0022
    101  CD1       33.5460    3.3900   14.8870 C.3   228  ILE228      0.0001
@<TRIPOS>BOND
     1     1     2    1
     2    15    13    1
     3    13    14    1
     4    13    10    1
     5    77    78    1
     6     2     5    1
     7     2     3    1
     8     9    10    1
     9     9     3   am
    10     5     6    1
    11    79    78    1
    12    79    80    2
    13    10    11    1
    14     3     4    2
    15    78    81    1
    16    84    83    1
    17    11    12    2
    18     6     7    1
    19     6     8    1
    20    81    82    1
    21    31    30    1
    22    85    86    1
    23    82    83    1
    24    30    29    1
    25    86    89    1
    26    86    87    1
    27    29    28    1
    28    94    87   am
    29    94    95    1
    30    96    95    1
    31    96    97    2
    32    98    95    1
    33    98   100    1
    34    98    99    1
    35    89    90    1
    36    87    88    2
    37   101    99    1
    38    28    27    1
    39    16    17    1
    40    27    24    1
    41    93    91   ar
    42    90    91    1
    43    22    20    1
    44    23    24    1
    45    23    18   am
    46    91    92   ar
    47    24    25    1
    48    20    17    1
    49    20    21    1
    50    17    18    1
    51    25    26    2
    52    71    70    2
    53    63    62    2
    54    18    19    2
    55    70    69    1
    56    66    64    1
    57    69    72    1
    58    69    68    1
    59    62    68   am
    60    62    61    1
    61    73    72    1
    62    73    74    1
    63    61    64    1
    64    61    60    1
    65    64    65    1
    66    76    74   am
    67    74    75    2
    68    65    67    1
    69    32    33    1
    70    37    36    1
    71    37    38    1
    72    55    54    2
    73    36    33    1
    74    33    34    1
    75    57    58    1
    76    57    56    1
    77    58    59    1
    78    34    35    2
    79    39    38    1
    80    39    40    1
    81    54    53    1
    82    53    56    1
    83    53    52    1
    84    51    49    1
    85    49    48    2
    86    49    50    1
    87    48    47    1
    88    47    46    1
    89    46    45    1
    90    41    42    1
    91    45    42    1
    92    42    43    1
    93    43    44    2
