@<TRIPOS>MOLECULE
tmp/2pixA01.pdb
 113 108 0 0 0
SMALL
GASTEIGER

@<TRIPOS>ATOM
      1  N         13.8890   25.4710   23.0450 N.3     2  ILE2       -0.1231
      2  CA        15.3370   25.3660   23.0780 C.3     2  ILE2        0.1692
      3  C         15.8100   24.0720   22.4260 C.2     2  ILE2        0.2592
      4  O         16.6360   24.0930   21.5130 O.2     2  ILE2       -0.2718
      5  CB        15.8800   25.4010   24.5240 C.3     2  ILE2        0.0266
      6  CG1       15.3060   26.6120   25.2640 C.3     2  ILE2        0.0019
      7  CG2       17.3920   25.4510   24.5190 C.3     2  ILE2        0.0020
      8  CD1       15.6180   27.9380   24.6060 C.3     2  ILE2        0.0001
      9  N         15.2820   22.9540   22.8890 N.am    3  PHE3       -0.1976
     10  CA        15.6550   21.6420   22.3660 C.3     3  PHE3        0.1639
     11  C         15.6600   21.5960   20.8510 C.2     3  PHE3        0.2290
     12  O         16.6280   21.1560   20.2340 O.2     3  PHE3       -0.2864
     13  CB        14.7060   20.5670   22.8930 C.3     3  PHE3        0.0560
     14  CG        15.0400   19.1860   22.4320 C.ar    3  PHE3       -0.0200
     15  CD1       16.1680   18.5330   22.9080 C.ar    3  PHE3       -0.0042
     16  CD2       14.2240   18.5340   21.5150 C.ar    3  PHE3       -0.0042
     17  CE1       16.4840   17.2430   22.4810 C.ar    3  PHE3       -0.0003
     18  CE2       14.5280   17.2420   21.0800 C.ar    3  PHE3       -0.0003
     19  CZ        15.6610   16.5940   21.5620 C.ar    3  PHE3       -0.0000
     20  N         18.4440   23.6110   18.9880 N.3     6  VAL6       -0.1245
     21  CA        19.7220   22.8810   19.0580 C.3     6  VAL6        0.1561
     22  C         19.8320   21.8350   17.9660 C.2     6  VAL6        0.2260
     23  O         20.7520   21.8860   17.1440 O.2     6  VAL6       -0.2867
     24  CB        19.8920   22.1960   20.4250 C.3     6  VAL6        0.0252
     25  CG1       21.2820   21.6120   20.5400 C.3     6  VAL6        0.0019
     26  CG2       19.6340   23.1800   21.5460 C.3     6  VAL6        0.0019
     27  N         22.3650   17.7770   23.5160 N.3    53  PRO53      -0.2102
     28  CA        21.9180   18.1120   24.8670 C.3    53  PRO53       0.1504
     29  C         22.0110   16.9560   25.8560 C.2    53  PRO53       0.2576
     30  O         21.4200   15.9050   25.6520 O.2    53  PRO53      -0.2718
     31  CB        20.4730   18.5720   24.6410 C.3    53  PRO53       0.0282
     32  CG        20.5340   19.2000   23.2930 C.3    53  PRO53       0.0208
     33  CD        21.3710   18.1950   22.5170 C.3    53  PRO53       0.0893
     34  N         22.7620   17.1660   26.9330 N.am   54  GLY54      -0.1957
     35  CA        22.9060   16.1450   27.9540 C.3    54  GLY54       0.1869
     36  C         23.8410   14.9950   27.6220 C.2    54  GLY54       0.2309
     37  O         24.1730   14.1930   28.5020 O.2    54  GLY54      -0.2863
     38  N         26.9720   14.2400   29.6060 N.3    57  ASN57      -0.1240
     39  CA        26.8180   13.7090   30.9490 C.3    57  ASN57       0.1653
     40  C         27.3100   12.2690   31.0500 C.2    57  ASN57       0.2266
     41  O         27.9470   11.8930   32.0320 O.2    57  ASN57      -0.2867
     42  CB        25.3580   13.7800   31.4020 C.3    57  ASN57       0.1155
     43  CG        24.9210   15.1980   31.7200 C.2    57  ASN57       0.2627
     44  OD1       25.6730   15.9760   32.3330 O.2    57  ASN57      -0.2716
     45  ND2       23.6960   15.5450   31.3280 N.am   57  ASN57      -0.0877
     46  N         22.2070    7.0220   34.2140 N.3   156  PHE156     -0.1241
     47  CA        22.3290    8.2350   33.4140 C.3   156  PHE156      0.1605
     48  C         21.8440    8.0500   31.9790 C.2   156  PHE156      0.2264
     49  O         21.2380    8.9600   31.4030 O.2   156  PHE156     -0.2867
     50  CB        23.7810    8.7150   33.4070 C.3   156  PHE156      0.0534
     51  CG        24.0740    9.7700   34.4280 C.ar  156  PHE156     -0.0203
     52  CD1       23.8010    9.5580   35.7790 C.ar  156  PHE156     -0.0042
     53  CD2       24.6350   10.9890   34.0460 C.ar  156  PHE156     -0.0042
     54  CE1       24.0760   10.5390   36.7300 C.ar  156  PHE156     -0.0003
     55  CE2       24.9180   11.9820   34.9930 C.ar  156  PHE156     -0.0003
     56  CZ        24.6340   11.7580   36.3300 C.ar  156  PHE156     -0.0000
     57  N         17.7990    7.7990   31.8380 N.3   159  GLU159     -0.1231
     58  CA        17.1700    9.1010   31.9990 C.3   159  GLU159      0.1699
     59  C         17.4010    9.9510   30.7460 C.2   159  GLU159      0.2592
     60  O         16.5230   10.7060   30.3210 O.2   159  GLU159     -0.2718
     61  CB        17.7370    9.8250   33.2300 C.3   159  GLU159      0.0402
     62  CG        16.7240   10.6900   33.9640 C.3   159  GLU159      0.1161
     63  CD        17.1440   12.1380   34.0570 C.2   159  GLU159      0.3649
     64  OE1       18.2690   12.4060   34.5360 O.co2 159  GLU159     -0.2457
     65  OE2       16.3390   13.0180   33.6600 O.co2 159  GLU159     -0.2457
     66  N         18.5850    9.8130   30.1500 N.am  160  LEU160     -0.1980
     67  CA        18.9260   10.5580   28.9550 C.3   160  LEU160      0.1596
     68  C         18.0450   10.1260   27.8010 C.2   160  LEU160      0.2287
     69  O         17.5990   10.9460   27.0080 O.2   160  LEU160     -0.2864
     70  CB        20.3990   10.3360   28.6070 C.3   160  LEU160      0.0297
     71  CG        20.9970   11.1750   27.4920 C.3   160  LEU160      0.0022
     72  CD1       20.5850   12.6330   27.6520 C.3   160  LEU160      0.0001
     73  CD2       22.5090   11.0530   27.5110 C.3   160  LEU160      0.0001
     74  N         14.2930   11.2530   28.4740 N.3   163  ASN163     -0.1225
     75  CA        14.0440   12.6540   28.1780 C.3   163  ASN163      0.1785
     76  C         13.9240   12.9610   26.6860 C.2   163  ASN163      0.2597
     77  O         13.1440   13.8220   26.2870 O.2   163  ASN163     -0.2718
     78  CB        15.1220   13.5340   28.8070 C.3   163  ASN163      0.1169
     79  CG        14.9500   13.6760   30.3040 C.2   163  ASN163      0.2627
     80  OD1       13.8270   13.7190   30.8090 O.2   163  ASN163     -0.2716
     81  ND2       16.0600   13.7790   31.0220 N.am  163  ASN163     -0.0877
     82  N         14.6880   12.2660   25.8580 N.am  164  TYR164     -0.1976
     83  CA        14.6010   12.4870   24.4190 C.3   164  TYR164      0.1639
     84  C         13.2890   11.9370   23.8920 C.2   164  TYR164      0.2290
     85  O         12.7550   12.4230   22.9060 O.2   164  TYR164     -0.2864
     86  CB        15.7840   11.8330   23.6820 C.3   164  TYR164      0.0560
     87  CG        16.9890   12.7420   23.5590 C.ar  164  TYR164     -0.0198
     88  CD1       17.8400   12.9620   24.6380 C.ar  164  TYR164     -0.0009
     89  CD2       17.2600   13.4090   22.3710 C.ar  164  TYR164     -0.0009
     90  CE1       18.9310   13.8190   24.5380 C.ar  164  TYR164      0.0417
     91  CE2       18.3430   14.2720   22.2570 C.ar  164  TYR164      0.0417
     92  CZ        19.1780   14.4730   23.3440 C.ar  164  TYR164      0.1957
     93  OH        20.2490   15.3230   23.2380 O.3   164  TYR164     -0.2866
     94  N         10.7280   14.5660   24.4210 N.3   167  GLU167     -0.1245
     95  CA        10.8080   15.6120   23.4230 C.3   167  GLU167      0.1567
     96  C         10.0310   15.2270   22.1700 C.2   167  GLU167      0.2260
     97  O          9.4090   16.0690   21.5170 O.2   167  GLU167     -0.2867
     98  CB        12.2660   15.8950   23.0630 C.3   167  GLU167      0.0388
     99  CG        13.0110   16.7290   24.0930 C.3   167  GLU167      0.1160
    100  CD        12.2900   18.0280   24.4040 C.2   167  GLU167      0.3649
    101  OE1       11.8890   18.7310   23.4430 O.co2 167  GLU167     -0.2457
    102  OE2       12.1320   18.3490   25.5980 O.co2 167  GLU167     -0.2457
    103  N          6.3220   15.8940   22.7990 N.3   170  ARG170     -0.1245
    104  CA         6.0010   17.2960   22.6840 C.3   170  ARG170      0.1563
    105  C          5.9730   17.7340   21.2300 C.2   170  ARG170      0.2260
    106  O          5.1150   18.5090   20.8220 O.2   170  ARG170     -0.2867
    107  CB         7.0190   18.1100   23.4390 C.3   170  ARG170      0.0307
    108  CG         7.2760   17.5940   24.8300 C.3   170  ARG170      0.0489
    109  CD         7.9530   18.6740   25.6280 C.3   170  ARG170      0.2205
    110  NE         9.0400   19.2630   24.8510 N.pl3 170  ARG170     -0.0865
    111  CZ         9.7040   20.3560   25.2150 C.cat 170  ARG170      0.5346
    112  NH1        9.3900   20.9760   26.3450 N.pl3 170  ARG170      0.1354
    113  NH2       10.6620   20.8440   24.4340 N.pl3 170  ARG170      0.1354
@<TRIPOS>BOND
     1    23    22    2
     2    22    21    1
     3    20    21    1
     4    21    24    1
     5    12    11    2
     6    24    25    1
     7    24    26    1
     8   106   105    2
     9    11    10    1
    10    18    16   ar
    11    18    19   ar
    12   105   104    1
    13     4     3    2
    14    16    14   ar
    15    97    96    2
    16    19    17   ar
    17    96    95    1
    18    91    89   ar
    19    91    92   ar
    20    10     9    1
    21    10    13    1
    22    89    87   ar
    23     3     9   am
    24     3     2    1
    25    14    13    1
    26    14    15   ar
    27    17    15   ar
    28    33    32    1
    29    33    27    1
    30   104   103    1
    31   104   107    1
    32    85    84    2
    33     1     2    1
    34    98    95    1
    35    98    99    1
    36     2     5    1
    37    93    92    1
    38    32    31    1
    39    92    90   ar
    40    95    94    1
    41   107   108    1
    42   101   100   ar
    43    27    28    1
    44    87    86    1
    45    87    88   ar
    46    86    83    1
    47    84    83    1
    48    99   100    1
    49   100   102   ar
    50    83    82    1
    51   113   111    1
    52     7     5    1
    53     5     6    1
    54    90    88   ar
    55     8     6    1
    56    31    28    1
    57   108   109    1
    58   110   111    2
    59   110   109    1
    60    28    29    1
    61   111   112    1
    62    30    29    2
    63    29    34   am
    64    82    76   am
    65    77    76    2
    66    76    75    1
    67    34    35    1
    68    69    68    2
    69    71    73    1
    70    71    72    1
    71    71    70    1
    72    36    35    1
    73    36    37    2
    74    68    67    1
    75    75    74    1
    76    75    78    1
    77    70    67    1
    78    78    79    1
    79    67    66    1
    80    38    39    1
    81    66    59   am
    82    79    80    2
    83    79    81   am
    84    60    59    2
    85    59    58    1
    86    39    40    1
    87    39    42    1
    88    40    41    2
    89    45    43   am
    90    42    43    1
    91    49    48    2
    92    43    44    2
    93    57    58    1
    94    48    47    1
    95    58    61    1
    96    61    62    1
    97    50    47    1
    98    50    51    1
    99    47    46    1
   100    65    63   ar
   101    62    63    1
   102    53    51   ar
   103    53    55   ar
   104    63    64   ar
   105    51    52   ar
   106    55    56   ar
   107    52    54   ar
   108    56    54   ar
