@<TRIPOS>MOLECULE
tmp/2piyC00.pdb
 196 184 0 0 0
SMALL
GASTEIGER

@<TRIPOS>ATOM
      1  N         -5.3600   37.8040  131.3240 N.3    64  HIS64      -0.1241
      2  CA        -6.2500   38.7740  131.9390 C.3    64  HIS64       0.1621
      3  C         -7.1950   39.3700  130.9080 C.2    64  HIS64       0.2264
      4  O         -6.7610   39.9070  129.8850 O.2    64  HIS64      -0.2867
      5  CB        -5.4270   39.8720  132.6170 C.3    64  HIS64       0.0745
      6  CG        -4.7410   39.4180  133.8680 C.ar   64  HIS64       0.0817
      7  ND1       -3.4740   39.8370  134.1880 N.ar   64  HIS64      -0.2268
      8  CD2       -5.2000   38.5960  134.8450 C.ar   64  HIS64       0.1154
      9  CE1       -3.1900   39.2730  135.3470 C.ar   64  HIS64       0.1986
     10  NE2       -4.2020   38.5110  135.7860 N.ar   64  HIS64      -0.2212
     11  N         -9.2640   41.8690  130.2990 N.3    66  ARG66      -0.1231
     12  CA        -9.3510   43.2380  129.7890 C.3    66  ARG66       0.1694
     13  C         -8.1270   43.6960  128.9910 C.2    66  ARG66       0.2591
     14  O         -8.1440   44.7700  128.3830 O.2    66  ARG66      -0.2718
     15  CB        -9.5800   44.2080  130.9480 C.3    66  ARG66       0.0321
     16  CG        -8.4840   44.1900  132.0050 C.3    66  ARG66       0.0489
     17  CD        -8.9710   44.8550  133.2790 C.3    66  ARG66       0.2205
     18  NE        -7.9470   44.8780  134.3180 N.pl3  66  ARG66      -0.0865
     19  CZ        -8.1960   45.1480  135.5920 C.cat  66  ARG66       0.5346
     20  NH1       -9.4350   45.4100  135.9820 N.pl3  66  ARG66       0.1354
     21  NH2       -7.2040   45.1760  136.4740 N.pl3  66  ARG66       0.1354
     22  N         -7.0680   42.8950  128.9910 N.am   67  GLU67      -0.1979
     23  CA        -5.8150   43.2870  128.3480 C.3    67  GLU67       0.1602
     24  C         -5.8230   42.9140  126.8640 C.2    67  GLU67       0.2287
     25  O         -5.0400   42.0810  126.4060 O.2    67  GLU67      -0.2864
     26  CB        -4.6330   42.6360  129.0940 C.3    67  GLU67       0.0415
     27  CG        -4.5800   43.0800  130.5590 C.3    67  GLU67       0.1163
     28  CD        -3.5510   42.3510  131.4130 C.2    67  GLU67       0.3649
     29  OE1       -3.5810   42.5570  132.6470 O.co2  67  GLU67      -0.2457
     30  OE2       -2.7260   41.5820  130.8710 O.co2  67  GLU67      -0.2457
     31  N        -11.1640   41.1050  134.8070 N.3   122  ARG122     -0.1245
     32  CA        -9.7790   40.6250  134.8410 C.3   122  ARG122      0.1563
     33  C         -9.6910   39.1110  135.0350 C.2   122  ARG122      0.2260
     34  O         -8.9520   38.4280  134.3280 O.2   122  ARG122     -0.2867
     35  CB        -9.0140   41.3270  135.9770 C.3   122  ARG122      0.0307
     36  CG        -7.6570   40.7120  136.3680 C.3   122  ARG122      0.0489
     37  CD        -7.1070   41.4240  137.6070 C.3   122  ARG122      0.2205
     38  NE        -5.8470   40.8750  138.1260 N.pl3 122  ARG122     -0.0865
     39  CZ        -4.6380   41.2170  137.6870 C.cat 122  ARG122      0.5346
     40  NH1       -4.5100   42.0980  136.7000 N.pl3 122  ARG122      0.1354
     41  NH2       -3.5530   40.7140  138.2620 N.pl3 122  ARG122      0.1354
     42  N         -3.1400   34.6670  137.2550 N.3   139  ASN139     -0.1225
     43  CA        -1.7180   34.9210  137.4490 C.3   139  ASN139      0.1785
     44  C         -1.3600   35.0340  138.9260 C.2   139  ASN139      0.2597
     45  O         -0.2970   35.5520  139.2800 O.2   139  ASN139     -0.2718
     46  CB        -1.2760   36.1880  136.7050 C.3   139  ASN139      0.1169
     47  CG         0.1800   36.1220  136.2730 C.2   139  ASN139      0.2627
     48  OD1        0.7180   35.0370  136.0410 O.2   139  ASN139     -0.2716
     49  ND2        0.8270   37.2790  136.1650 N.am  139  ASN139     -0.0877
     50  N         -2.2600   34.5540  139.7800 N.am  140  ARG140     -0.1979
     51  CA        -1.9440   34.2900  141.1800 C.3   140  ARG140      0.1597
     52  C         -2.2560   32.8340  141.5260 C.2   140  ARG140      0.2287
     53  O         -2.2410   32.4540  142.6950 O.2   140  ARG140     -0.2864
     54  CB        -2.7500   35.2050  142.1090 C.3   140  ARG140      0.0334
     55  CG        -2.5660   36.6910  141.8660 C.3   140  ARG140      0.0492
     56  CD        -1.1720   37.1800  142.2580 C.3   140  ARG140      0.2205
     57  NE        -1.0930   38.6320  142.1070 N.pl3 140  ARG140     -0.0865
     58  CZ        -0.9520   39.2550  140.9390 C.cat 140  ARG140      0.5346
     59  NH1       -0.8670   38.5560  139.8170 N.pl3 140  ARG140      0.1354
     60  NH2       -0.9240   40.5810  140.8900 N.pl3 140  ARG140      0.1354
     61  N          1.4650   39.6490  147.6010 N.3   150  GLY150     -0.1225
     62  CA         0.8960   40.3260  146.4520 C.3   150  GLY150      0.1811
     63  C         -0.3400   39.6370  145.9060 C.2   150  GLY150      0.2280
     64  O         -0.6840   39.8060  144.7380 O.2   150  GLY150     -0.2866
     65  N         -9.5800   41.4950  143.1040 N.3   158  GLU158     -0.1231
     66  CA        -9.0890   41.2760  141.7460 C.3   158  GLU158      0.1699
     67  C         -7.8710   40.3580  141.6870 C.2   158  GLU158      0.2592
     68  O         -7.5500   39.8210  140.6260 O.2   158  GLU158     -0.2718
     69  CB        -8.7350   42.6180  141.0960 C.3   158  GLU158      0.0402
     70  CG        -9.9300   43.5110  140.8290 C.3   158  GLU158      0.1161
     71  CD       -10.6590   43.1290  139.5580 C.2   158  GLU158      0.3649
     72  OE1      -11.2410   42.0230  139.5130 O.co2 158  GLU158     -0.2457
     73  OE2      -10.6450   43.9380  138.6050 O.co2 158  GLU158     -0.2457
     74  N         -7.1840   40.2040  142.8180 N.am  159  THR159     -0.1953
     75  CA        -5.9870   39.3700  142.8730 C.3   159  THR159      0.1897
     76  C         -6.2060   38.1090  143.7050 C.2   159  THR159      0.2313
     77  O         -5.2500   37.5190  144.2030 O.2   159  THR159     -0.2863
     78  CB        -4.7810   40.1370  143.4660 C.3   159  THR159      0.1794
     79  OG1       -5.1100   40.6190  144.7730 O.3   159  THR159     -0.2208
     80  CG2       -4.4030   41.3110  142.5740 C.3   159  THR159      0.0378
     81  N          1.0090   40.3150  128.5700 N.3   192  HIS192     -0.1226
     82  CA         0.0490   41.1220  129.3260 C.3   192  HIS192      0.1752
     83  C          0.1030   42.5660  128.8150 C.2   192  HIS192      0.2597
     84  O          0.9070   42.8910  127.9440 O.2   192  HIS192     -0.2718
     85  CB         0.4040   41.1190  130.8220 C.3   192  HIS192      0.0759
     86  CG         0.1370   39.8180  131.5200 C.ar  192  HIS192      0.0818
     87  ND1       -0.8220   39.7120  132.4960 N.ar  192  HIS192     -0.2268
     88  CD2        0.7540   38.6190  131.3680 C.ar  192  HIS192      0.1154
     89  CE1       -0.7690   38.4630  132.9190 C.ar  192  HIS192      0.1986
     90  NE2        0.1680   37.7630  132.2670 N.ar  192  HIS192     -0.2212
     91  N         -0.7640   43.4190  129.3610 N.am  193  SER193     -0.1938
     92  CA        -0.6240   44.8790  129.2520 C.3   193  SER193      0.2055
     93  C         -1.2360   45.4830  130.5180 C.2   193  SER193      0.2643
     94  O         -1.9180   44.7730  131.2600 O.2   193  SER193     -0.2714
     95  CB        -1.3550   45.3990  128.0010 C.3   193  SER193      0.2130
     96  OG        -2.7620   45.4420  128.1850 O.3   193  SER193     -0.2179
     97  N         -0.9980   46.7650  130.8030 N.am  194  TYR194     -0.1959
     98  CA        -0.0720   47.6400  130.0840 C.3   194  TYR194      0.1771
     99  C          1.1050   47.9600  131.0180 C.2   194  TYR194      0.2620
    100  O          1.1280   47.4970  132.1550 O.2   194  TYR194     -0.2715
    101  CB        -0.7880   48.9430  129.7110 C.3   194  TYR194      0.0574
    102  CG        -1.3720   49.6610  130.9100 C.ar  194  TYR194     -0.0198
    103  CD1       -2.6160   49.3060  131.4180 C.ar  194  TYR194     -0.0009
    104  CD2       -0.6650   50.6680  131.5580 C.ar  194  TYR194     -0.0009
    105  CE1       -3.1370   49.9290  132.5370 C.ar  194  TYR194      0.0417
    106  CE2       -1.1790   51.2960  132.6790 C.ar  194  TYR194      0.0417
    107  CZ        -2.4150   50.9220  133.1640 C.ar  194  TYR194      0.1957
    108  OH        -2.9320   51.5350  134.2840 O.3   194  TYR194     -0.2866
    109  N          2.0640   48.7500  130.5270 N.am  195  SER195     -0.1950
    110  CA         3.1670   49.3150  131.3270 C.3   195  SER195      0.1924
    111  C          4.4880   49.3920  130.5690 C.2   195  SER195      0.2314
    112  O          5.4180   50.0830  130.9960 O.2   195  SER195     -0.2863
    113  CB         3.4060   48.5180  132.6190 C.3   195  SER195      0.2116
    114  OG         2.7880   49.1570  133.7170 O.3   195  SER195     -0.2180
    115  N          9.6080   41.5960  132.0680 N.3   199  LEU199     -0.1245
    116  CA         9.8840   41.1110  133.4190 C.3   199  LEU199      0.1561
    117  C         10.4220   39.6860  133.3640 C.2   199  LEU199      0.2260
    118  O         10.0300   38.9020  132.5040 O.2   199  LEU199     -0.2867
    119  CB         8.6030   41.1330  134.2600 C.3   199  LEU199      0.0270
    120  CG         7.8220   42.4490  134.3100 C.3   199  LEU199      0.0019
    121  CD1        6.5240   42.2490  135.0770 C.3   199  LEU199      0.0001
    122  CD2        8.6720   43.5230  134.9700 C.3   199  LEU199      0.0001
    123  N          8.9220   37.0500  140.9930 N.3   203  SER203     -0.1217
    124  CA         7.8880   37.9540  141.4770 C.3   203  SER203      0.1889
    125  C          7.2980   37.5370  142.8230 C.2   203  SER203      0.2288
    126  O          6.7030   38.3600  143.5160 O.2   203  SER203     -0.2866
    127  CB         6.7650   38.0730  140.4410 C.3   203  SER203      0.2089
    128  OG         7.2570   38.6130  139.2310 O.3   203  SER203     -0.2183
    129  N         10.6590   40.7290  138.4260 N.3   239  GLY239     -0.1225
    130  CA         9.2950   41.1960  138.5850 C.3   239  GLY239      0.1811
    131  C          9.0300   41.9430  139.8800 C.2   239  GLY239      0.2280
    132  O          8.4230   43.0120  139.8680 O.2   239  GLY239     -0.2866
    133  N          8.0850   45.9980  139.1780 N.3   243  ILE243     -0.1231
    134  CA         6.7090   46.4780  139.2240 C.3   243  ILE243      0.1692
    135  C          6.0890   46.3230  140.6170 C.2   243  ILE243      0.2592
    136  O          5.8370   47.3180  141.2950 O.2   243  ILE243     -0.2718
    137  CB         5.8420   45.7680  138.1450 C.3   243  ILE243      0.0266
    138  CG1        4.4050   46.2740  138.2150 C.3   243  ILE243      0.0019
    139  CG2        5.9220   44.2710  138.3060 C.3   243  ILE243      0.0020
    140  CD1        4.2610   47.7190  137.8300 C.3   243  ILE243      0.0001
    141  N          5.8620   45.0890  141.0540 N.am  244  TYR244     -0.1976
    142  CA         5.4620   44.8150  142.4350 C.3   244  TYR244      0.1639
    143  C          5.4580   43.3160  142.7090 C.2   244  TYR244      0.2290
    144  O          5.4220   42.5110  141.7830 O.2   244  TYR244     -0.2864
    145  CB         4.0760   45.4130  142.7420 C.3   244  TYR244      0.0560
    146  CG         2.9830   45.0800  141.7410 C.ar  244  TYR244     -0.0198
    147  CD1        2.4110   43.8130  141.6930 C.ar  244  TYR244     -0.0009
    148  CD2        2.5150   46.0430  140.8530 C.ar  244  TYR244     -0.0009
    149  CE1        1.4020   43.5170  140.7850 C.ar  244  TYR244      0.0417
    150  CE2        1.5090   45.7550  139.9420 C.ar  244  TYR244      0.0417
    151  CZ         0.9570   44.4910  139.9120 C.ar  244  TYR244      0.1957
    152  OH        -0.0260   44.2020  138.9910 O.3   244  TYR244     -0.2866
    153  N          4.1760   39.6760  143.3520 N.3   246  ALA246     -0.1245
    154  CA         2.9740   38.9890  142.8950 C.3   246  ALA246      0.1562
    155  C          3.2300   37.4900  142.8140 C.2   246  ALA246      0.2260
    156  O          3.7130   36.9890  141.7990 O.2   246  ALA246     -0.2867
    157  CB         2.5550   39.5280  141.5320 C.3   246  ALA246      0.0290
    158  N          2.6070   33.4210  139.9940 N.3   249  GLY249     -0.1225
    159  CA         2.6570   33.7530  138.5810 C.3   249  GLY249      0.1811
    160  C          3.1360   32.6040  137.7120 C.2   249  GLY249      0.2280
    161  O          3.9400   31.7780  138.1480 O.2   249  GLY249     -0.2866
    162  N          5.0180   32.7100  135.0450 N.3   251  ASP251     -0.1239
    163  CA         6.4070   32.8220  134.6240 C.3   251  ASP251      0.1674
    164  C          7.3790   32.2980  135.6800 C.2   251  ASP251      0.2266
    165  O          8.3430   31.6050  135.3500 O.2   251  ASP251     -0.2867
    166  CB         6.7580   34.2700  134.2230 C.3   251  ASP251      0.1410
    167  CG         6.5340   35.2780  135.3370 C.2   251  ASP251      0.3668
    168  OD1        5.8750   34.9540  136.3510 O.co2 251  ASP251     -0.2456
    169  OD2        7.0260   36.4200  135.1790 O.co2 251  ASP251     -0.2456
    170  N          7.6750   37.7940  131.2580 N.3   264  THR264     -0.1218
    171  CA         6.3780   38.4430  131.1250 C.3   264  THR264      0.1862
    172  C          6.5540   39.7480  130.3480 C.2   264  THR264      0.2287
    173  O          7.4090   40.5770  130.6860 O.2   264  THR264     -0.2866
    174  CB         5.7640   38.7650  132.5060 C.3   264  THR264      0.1770
    175  OG1        5.5370   37.5450  133.2280 O.3   264  THR264     -0.2211
    176  CG2        4.4430   39.5140  132.3400 C.3   264  THR264      0.0375
    177  N          4.7710   43.2900  129.3020 N.3   266  GLU266     -0.1245
    178  CA         3.6760   44.2440  129.4710 C.3   266  GLU266      0.1567
    179  C          3.6980   45.2040  128.2870 C.2   266  GLU266      0.2260
    180  O          4.6330   45.9840  128.1460 O.2   266  GLU266     -0.2867
    181  CB         3.8460   45.0390  130.7690 C.3   266  GLU266      0.0388
    182  CG         3.8360   44.1970  132.0400 C.3   266  GLU266      0.1160
    183  CD         2.4660   43.6260  132.3580 C.2   266  GLU266      0.3649
    184  OE1        1.4620   44.1260  131.8100 O.co2 266  GLU266     -0.2457
    185  OE2        2.4010   42.6710  133.1620 O.co2 266  GLU266     -0.2457
    186  N         -5.8650   49.8630  129.5990 N.3   275  PHE275     -0.1241
    187  CA        -6.3630   48.6280  129.0060 C.3   275  PHE275      0.1605
    188  C         -7.1350   48.8760  127.7180 C.2   275  PHE275      0.2264
    189  O         -7.2720   47.9760  126.8910 O.2   275  PHE275     -0.2867
    190  CB        -7.2550   47.8850  130.0010 C.3   275  PHE275      0.0534
    191  CG        -6.5640   47.5460  131.2850 C.ar  275  PHE275     -0.0203
    192  CD1       -5.4340   46.7400  131.2860 C.ar  275  PHE275     -0.0042
    193  CD2       -7.0190   48.0600  132.4890 C.ar  275  PHE275     -0.0042
    194  CE1       -4.7690   46.4550  132.4630 C.ar  275  PHE275     -0.0003
    195  CE2       -6.3590   47.7800  133.6720 C.ar  275  PHE275     -0.0003
    196  CZ        -5.2310   46.9760  133.6590 C.ar  275  PHE275     -0.0000
@<TRIPOS>BOND
     1    25    24    2
     2    24    23    1
     3   189   188    2
     4   188   187    1
     5    84    83    2
     6    95    96    1
     7    95    92    1
     8   180   179    2
     9   179   178    1
    10    23    22    1
    11    23    26    1
    12    14    13    2
    13    81    82    1
    14    83    82    1
    15    83    91   am
    16    13    22   am
    17    13    12    1
    18   187   186    1
    19   187   190    1
    20    26    27    1
    21    92    91    1
    22    92    93    1
    23   177   178    1
    24    82    85    1
    25   178   181    1
    26   101    98    1
    27   101   102    1
    28    12    11    1
    29    12    15    1
    30     4     3    2
    31   190   191    1
    32    98    97    1
    33    98    99    1
    34   172   173    2
    35   172   171    1
    36    93    97   am
    37    93    94    2
    38   109    99   am
    39   109   110    1
    40    27    28    1
    41   111   112    2
    42   111   110    1
    43   181   182    1
    44    85    86    1
    45    30    28   ar
    46     3     2    1
    47   102   103   ar
    48   102   104   ar
    49    15    16    1
    50    99   100    2
    51   171   170    1
    52   171   174    1
    53   191   192   ar
    54   191   193   ar
    55   192   194   ar
    56     1     2    1
    57   110   113    1
    58    88    86   ar
    59    88    90   ar
    60    28    29   ar
    61   103   105   ar
    62    86    87   ar
    63   104   106   ar
    64   184   183   ar
    65     2     5    1
    66    16    17    1
    67   182   183    1
    68   115   116    1
    69    90    89   ar
    70   176   174    1
    71   183   185   ar
    72   194   196   ar
    73   193   195   ar
    74    87    89   ar
    75   118   117    2
    76   174   175    1
    77   105   107   ar
    78     5     6    1
    79   113   114    1
    80   106   107   ar
    81   107   108    1
    82    17    18    1
    83   117   116    1
    84   116   119    1
    85   196   195   ar
    86     6     7   ar
    87     6     8   ar
    88     7     9   ar
    89   166   163    1
    90   166   167    1
    91   119   120    1
    92   120   122    1
    93   120   121    1
    94    18    19    2
    95    34    33    2
    96   163   162    1
    97   163   164    1
    98    31    32    1
    99    32    33    1
   100    32    35    1
   101     8    10   ar
   102   169   167   ar
   103   167   168   ar
   104     9    10   ar
   105   165   164    2
   106    19    20    1
   107    19    21    1
   108    35    36    1
   109    48    47    2
   110    49    47   am
   111    47    46    1
   112    36    37    1
   113    40    39    1
   114    46    43    1
   115    42    43    1
   116    43    44    1
   117    37    38    1
   118    39    38    2
   119    39    41    1
   120   160   161    2
   121   160   159    1
   122   140   138    1
   123   137   138    1
   124   137   139    1
   125   137   134    1
   126   129   130    1
   127   159   158    1
   128   130   131    1
   129    73    71   ar
   130    44    45    2
   131    44    50   am
   132   152   151    1
   133   133   134    1
   134   134   135    1
   135   128   127    1
   136    72    71   ar
   137    71    70    1
   138    50    51    1
   139    59    58    1
   140   132   131    2
   141   151   150   ar
   142   151   149   ar
   143   150   148   ar
   144   127   124    1
   145   135   141   am
   146   135   136    2
   147    68    67    2
   148   149   147   ar
   149    70    69    1
   150   148   146   ar
   151    60    58    1
   152    58    57    2
   153   123   124    1
   154   141   142    1
   155    69    66    1
   156    51    52    1
   157    51    54    1
   158   124   125    1
   159    52    53    2
   160   157   154    1
   161    67    66    1
   162    67    74   am
   163   147   146   ar
   164   146   145    1
   165    66    65    1
   166   144   143    2
   167   156   155    2
   168    55    54    1
   169    55    56    1
   170    57    56    1
   171   142   143    1
   172   142   145    1
   173    80    78    1
   174   155   154    1
   175    74    75    1
   176   125   126    2
   177    75    78    1
   178    75    76    1
   179   154   153    1
   180    78    79    1
   181    76    77    2
   182    64    63    2
   183    63    62    1
   184    62    61    1
