@<TRIPOS>MOLECULE
tmp/2pizA00.pdb
 195 184 0 0 0
SMALL
GASTEIGER

@<TRIPOS>ATOM
      1  N         29.4570    7.9650   61.0110 N.3    65  HIS65      -0.1241
      2  CA        29.5460    8.7590   62.2280 C.3    65  HIS65       0.1621
      3  C         28.1910    9.3700   62.5670 C.2    65  HIS65       0.2264
      4  O         27.6140   10.1050   61.7660 O.2    65  HIS65      -0.2867
      5  CB        30.6060    9.8520   62.0510 C.3    65  HIS65       0.0745
      6  CG        32.0140    9.3420   62.1210 C.ar   65  HIS65       0.0817
      7  ND1       33.0160    9.8790   61.3500 N.ar   65  HIS65      -0.2268
      8  CD2       32.5250    8.3510   62.8950 C.ar   65  HIS65       0.1154
      9  CE1       34.1090    9.2080   61.6650 C.ar   65  HIS65       0.1986
     10  NE2       33.8650    8.2720   62.5960 N.ar   65  HIS65      -0.2212
     11  N         26.6380   11.6450   64.3730 N.3    67  ARG67      -0.1231
     12  CA        26.2300   13.0490   64.4220 C.3    67  ARG67       0.1694
     13  C         26.2710   13.7580   63.0670 C.2    67  ARG67       0.2591
     14  O         25.8300   14.9060   62.9530 O.2    67  ARG67      -0.2718
     15  CB        27.1050   13.8180   65.4180 C.3    67  ARG67       0.0321
     16  CG        28.5850   13.8030   65.0860 C.3    67  ARG67       0.0489
     17  CD        29.3910   14.3350   66.2640 C.3    67  ARG67       0.2205
     18  NE        30.8250   14.3340   66.0030 N.pl3  67  ARG67      -0.0865
     19  CZ        31.7540   14.4770   66.9440 C.cat  67  ARG67       0.5346
     20  NH1       31.4000   14.6260   68.2140 N.pl3  67  ARG67       0.1354
     21  NH2       33.0400   14.4950   66.6140 N.pl3  67  ARG67       0.1354
     22  N         26.8010   13.0900   62.0430 N.am   68  GLU68      -0.1979
     23  CA        26.9780   13.7240   60.7410 C.3    68  GLU68       0.1602
     24  C         25.7220   13.5540   59.8850 C.2    68  GLU68       0.2287
     25  O         25.7310   12.8780   58.8540 O.2    68  GLU68      -0.2864
     26  CB        28.2140   13.1360   60.0500 C.3    68  GLU68       0.0415
     27  CG        29.4780   13.3850   60.8770 C.3    68  GLU68       0.1163
     28  CD        30.7090   12.6560   60.3680 C.2    68  GLU68       0.3649
     29  OE1       30.6670   12.1010   59.2520 O.co2  68  GLU68      -0.2457
     30  OE2       31.7260   12.6470   61.0960 O.co2  68  GLU68      -0.2457
     31  N         29.1890   10.0870   68.2710 N.3   123  ARG123     -0.1245
     32  CA        29.7590    9.6870   66.9880 C.3   123  ARG123      0.1563
     33  C         30.0420    8.2000   66.8570 C.2   123  ARG123      0.2260
     34  O         29.9200    7.6430   65.7680 O.2   123  ARG123     -0.2867
     35  CB        31.0390   10.4770   66.7080 C.3   123  ARG123      0.0307
     36  CG        32.2520    9.9590   67.4380 C.3   123  ARG123      0.0489
     37  CD        33.3640   10.9920   67.4240 C.3   123  ARG123      0.2205
     38  NE        33.7320   11.3780   66.0700 N.pl3 123  ARG123     -0.0865
     39  CZ        34.6410   10.7420   65.3400 C.cat 123  ARG123      0.5346
     40  NH1       35.2720    9.6890   65.8380 N.pl3 123  ARG123      0.1354
     41  NH2       34.9140   11.1570   64.1170 N.pl3 123  ARG123      0.1354
     42  N         34.9490    3.9760   67.5080 N.3   138  ASP138     -0.1239
     43  CA        34.8580    4.7860   66.3010 C.3   138  ASP138      0.1674
     44  C         34.9370    3.8330   65.1050 C.2   138  ASP138      0.2266
     45  O         35.9870    3.2590   64.8220 O.2   138  ASP138     -0.2867
     46  CB        36.0190    5.7900   66.2530 C.3   138  ASP138      0.1410
     47  CG        36.0240    6.6270   64.9790 C.2   138  ASP138      0.3668
     48  OD1       35.2390    6.3330   64.0560 O.co2 138  ASP138     -0.2456
     49  OD2       36.8230    7.5850   64.9050 O.co2 138  ASP138     -0.2456
     50  N         35.1950    4.2600   62.0570 N.3   140  ASN140     -0.1225
     51  CA        36.1690    4.6220   61.0340 C.3   140  ASN140      0.1785
     52  C         37.6060    4.6130   61.5420 C.2   140  ASN140      0.2597
     53  O         38.4940    5.2200   60.9330 O.2   140  ASN140     -0.2718
     54  CB        35.8580    5.9950   60.4280 C.3   140  ASN140      0.1169
     55  CG        36.4190    6.1360   59.0280 C.2   140  ASN140      0.2627
     56  OD1       36.4560    5.1650   58.2760 O.2   140  ASN140     -0.2716
     57  ND2       36.8610    7.3390   58.6710 N.am  140  ASN140     -0.0877
     58  N         37.8320    3.9380   62.6630 N.am  141  ARG141     -0.1979
     59  CA        39.1870    3.6020   63.0890 C.3   141  ARG141      0.1597
     60  C         39.2880    2.0970   63.3410 C.2   141  ARG141      0.2287
     61  O         40.2710    1.5970   63.9040 O.2   141  ARG141     -0.2864
     62  CB        39.5530    4.4040   64.3450 C.3   141  ARG141      0.0334
     63  CG        39.7460    5.8930   64.0420 C.3   141  ARG141      0.0492
     64  CD        39.9890    6.7300   65.2860 C.3   141  ARG141      0.2205
     65  NE        40.8240    7.8980   64.9930 N.pl3 141  ARG141     -0.0865
     66  CZ        40.3570    9.0930   64.6400 C.cat 141  ARG141      0.5346
     67  NH1       39.0500    9.2960   64.5300 N.pl3 141  ARG141      0.1354
     68  NH2       41.1980   10.0920   64.4020 N.pl3 141  ARG141      0.1354
     69  N         37.8980    8.5950   69.7110 N.3   160  THR160     -0.1218
     70  CA        38.6210    7.9870   68.6040 C.3   160  THR160      0.1862
     71  C         39.0920    6.5700   68.9150 C.2   160  THR160      0.2287
     72  O         40.0300    6.0760   68.2820 O.2   160  THR160     -0.2866
     73  CB        39.8380    8.8390   68.2040 C.3   160  THR160      0.1770
     74  OG1       40.6800    9.0320   69.3450 O.3   160  THR160     -0.2211
     75  CG2       39.3880   10.2030   67.6810 C.3   160  THR160      0.0375
     76  N         30.8270   11.6540   54.7020 N.3   193  HIS193     -0.1226
     77  CA        30.9340   12.2220   56.0470 C.3   193  HIS193      0.1752
     78  C         30.6450   13.7270   56.0040 C.2   193  HIS193      0.2597
     79  O         30.4540   14.3030   54.9380 O.2   193  HIS193     -0.2718
     80  CB        32.3510   12.0070   56.6060 C.3   193  HIS193      0.0759
     81  CG        32.6740   10.5850   56.9600 C.ar  193  HIS193      0.0818
     82  ND1       32.8910   10.2060   58.2620 N.ar  193  HIS193     -0.2268
     83  CD2       32.8620    9.5150   56.1440 C.ar  193  HIS193      0.1154
     84  CE1       33.2100    8.9250   58.2180 C.ar  193  HIS193      0.1986
     85  NE2       33.2090    8.4570   56.9630 N.ar  193  HIS193     -0.2212
     86  N         30.6090   14.3520   57.1760 N.am  194  SER194     -0.1938
     87  CA        30.7070   15.8030   57.2970 C.3   194  SER194      0.2055
     88  C         31.4530   16.0430   58.6100 C.2   194  SER194      0.2643
     89  O         31.5710   15.1230   59.4180 O.2   194  SER194     -0.2714
     90  CB        29.3100   16.4390   57.3530 C.3   194  SER194      0.2130
     91  OG        28.6930   16.2340   58.6140 O.3   194  SER194     -0.2179
     92  N         31.9820   17.2480   58.8250 N.am  195  TYR195     -0.1959
     93  CA        31.9790   18.3300   57.8430 C.3   195  TYR195      0.1771
     94  C         33.4250   18.7010   57.5010 C.2   195  TYR195      0.2620
     95  O         34.3520   18.1630   58.0980 O.2   195  TYR195     -0.2715
     96  CB        31.2660   19.5460   58.4330 C.3   195  TYR195      0.0574
     97  CG        31.9230   20.0580   59.7040 C.ar  195  TYR195     -0.0198
     98  CD1       31.6260   19.4920   60.9400 C.ar  195  TYR195     -0.0009
     99  CD2       32.8480   21.0920   59.6640 C.ar  195  TYR195     -0.0009
    100  CE1       32.2310   19.9400   62.1000 C.ar  195  TYR195      0.0417
    101  CE2       33.4630   21.5500   60.8240 C.ar  195  TYR195      0.0417
    102  CZ        33.1500   20.9710   62.0370 C.ar  195  TYR195      0.1957
    103  OH        33.7470   21.4250   63.1980 O.3   195  TYR195     -0.2866
    104  N         33.5950   19.6040   56.5340 N.am  196  SER196     -0.1950
    105  CA        34.8590   20.3080   56.2640 C.3   196  SER196      0.1924
    106  C         34.9950   20.7010   54.7940 C.2   196  SER196      0.2314
    107  O         35.8840   21.4700   54.4340 O.2   196  SER196     -0.2863
    108  CB        36.0860   19.4700   56.6540 C.3   196  SER196      0.2116
    109  OG        36.4240   19.6630   58.0170 O.3   196  SER196     -0.2180
    110  N         38.7730   13.4450   50.2030 N.3   200  LEU200     -0.1245
    111  CA        40.0000   12.7840   50.6370 C.3   200  LEU200      0.1561
    112  C         40.1900   11.4870   49.8660 C.2   200  LEU200      0.2260
    113  O         39.2190   10.8040   49.5530 O.2   200  LEU200     -0.2867
    114  CB        39.9160   12.4590   52.1280 C.3   200  LEU200      0.0270
    115  CG        39.3890   13.5800   53.0220 C.3   200  LEU200      0.0019
    116  CD1       39.2600   13.0890   54.4580 C.3   200  LEU200      0.0001
    117  CD2       40.3200   14.7670   52.9240 C.3   200  LEU200      0.0001
    118  N         45.4260    7.8880   54.8760 N.3   204  SER204     -0.1217
    119  CA        45.3820    8.5940   56.1470 C.3   204  SER204      0.1889
    120  C         46.2070    7.8920   57.2200 C.2   204  SER204      0.2288
    121  O         46.6790    8.5360   58.1590 O.2   204  SER204     -0.2866
    122  CB        43.9400    8.7260   56.6270 C.3   204  SER204      0.2089
    123  OG        43.1960    9.5460   55.7490 O.3   204  SER204     -0.2183
    124  N         43.8480   16.5660   56.0590 N.3   244  ILE244     -0.1231
    125  CA        43.2550   16.8120   57.3730 C.3   244  ILE244      0.1692
    126  C         44.3180   16.5480   58.4240 C.2   244  ILE244      0.2592
    127  O         44.9490   17.4700   58.9360 O.2   244  ILE244     -0.2718
    128  CB        42.0880   15.8570   57.6830 C.3   244  ILE244      0.0266
    129  CG1       41.2830   15.5870   56.4260 C.3   244  ILE244      0.0019
    130  CG2       41.2040   16.4470   58.7700 C.3   244  ILE244      0.0020
    131  CD1       41.8950   14.5070   55.5850 C.3   244  ILE244      0.0001
    132  N         44.4940   15.2680   58.7410 N.am  245  TYR245     -0.1976
    133  CA        45.5650   14.8000   59.6150 C.3   245  TYR245      0.1639
    134  C         45.5980   13.2780   59.5740 C.2   245  TYR245      0.2290
    135  O         44.6320   12.6380   59.1510 O.2   245  TYR245     -0.2864
    136  CB        45.3530   15.2910   61.0560 C.3   245  TYR245      0.0560
    137  CG        43.9170   15.2630   61.5320 C.ar  245  TYR245     -0.0198
    138  CD1       43.2660   14.0600   61.7790 C.ar  245  TYR245     -0.0009
    139  CD2       43.2060   16.4430   61.7200 C.ar  245  TYR245     -0.0009
    140  CE1       41.9420   14.0330   62.1950 C.ar  245  TYR245      0.0417
    141  CE2       41.8840   16.4270   62.1360 C.ar  245  TYR245      0.0417
    142  CZ        41.2570   15.2190   62.3680 C.ar  245  TYR245      0.1957
    143  OH        39.9330   15.2000   62.7470 O.3   245  TYR245     -0.2866
    144  N         45.1890    9.4560   60.4180 N.3   247  ALA247     -0.1245
    145  CA        44.3120    8.6370   61.2360 C.3   247  ALA247      0.1562
    146  C         44.2320    7.2440   60.6220 C.2   247  ALA247      0.2260
    147  O         43.9250    7.0940   59.4440 O.2   247  ALA247     -0.2867
    148  CB        42.9280    9.2710   61.3080 C.3   247  ALA247      0.0290
    149  N         40.7930    3.5550   58.7590 N.3   250  GLY250     -0.1225
    150  CA        39.6640    4.0850   58.0070 C.3   250  GLY250      0.1811
    151  C         39.2280    3.1850   56.8670 C.2   250  GLY250      0.2280
    152  O         40.0270    2.4290   56.3260 O.2   250  GLY250     -0.2866
    153  N         38.1580    3.9430   53.7960 N.3   252  ASP252     -0.1225
    154  CA        38.6630    4.3120   52.4850 C.3   252  ASP252      0.1805
    155  C         40.0470    3.7150   52.2260 C.2   252  ASP252      0.2597
    156  O         40.2970    3.1820   51.1470 O.2   252  ASP252     -0.2718
    157  CB        38.6770    5.8430   52.3030 C.3   252  ASP252      0.1424
    158  CG        39.4330    6.5790   53.3990 C.2   252  ASP252      0.3668
    159  OD1       39.9460    5.9360   54.3350 O.co2 252  ASP252     -0.2456
    160  OD2       39.5090    7.8280   53.3180 O.co2 252  ASP252     -0.2456
    161  N         40.9330    3.7890   53.2160 N.am  253  ASP253     -0.1974
    162  CA        42.2620    3.1850   53.0960 C.3   253  ASP253      0.1709
    163  C         42.1810    1.6650   52.9620 C.2   253  ASP253      0.2293
    164  O         42.8670    1.0720   52.1320 O.2   253  ASP253     -0.2864
    165  CB        43.1170    3.5390   54.3140 C.3   253  ASP253      0.1436
    166  CG        43.6000    4.9810   54.2950 C.2   253  ASP253      0.3671
    167  OD1       43.4360    5.6610   53.2550 O.co2 253  ASP253     -0.2456
    168  OD2       44.1510    5.4250   55.3250 O.co2 253  ASP253     -0.2456
    169  N         36.8310    9.5700   50.6050 N.3   265  THR265     -0.1218
    170  CA        35.9710   10.0860   51.6650 C.3   265  THR265      0.1862
    171  C         35.5090   11.4950   51.3030 C.2   265  THR265      0.2287
    172  O         36.3210   12.3650   50.9880 O.2   265  THR265     -0.2866
    173  CB        36.7010   10.1470   53.0160 C.3   265  THR265      0.1770
    174  OG1       37.0540    8.8220   53.4350 O.3   265  THR265     -0.2211
    175  CG2       35.8010   10.7860   54.0710 C.3   265  THR265      0.0375
    176  N         33.7900   14.8370   52.7510 N.3   267  GLU267     -0.1245
    177  CA        33.3460   15.6100   53.9070 C.3   267  GLU267      0.1567
    178  C         32.4890   16.7620   53.3940 C.2   267  GLU267      0.2260
    179  O         32.9860   17.6470   52.7000 O.2   267  GLU267     -0.2867
    180  CB        34.5480   16.1560   54.6850 C.3   267  GLU267      0.0388
    181  CG        35.3930   15.0850   55.3810 C.3   267  GLU267      0.1160
    182  CD        34.6870   14.4540   56.5690 C.2   267  GLU267      0.3649
    183  OE1       33.5890   14.9230   56.9480 O.co2 267  GLU267     -0.2457
    184  OE2       35.2350   13.4800   57.1360 O.co2 267  GLU267     -0.2457
    185  N         28.5100   19.9780   62.6470 N.3   276  PHE276     -0.1241
    186  CA        27.6990   18.7740   62.5020 C.3   276  PHE276      0.1605
    187  C         26.2120   19.0970   62.5220 C.2   276  PHE276      0.2264
    188  O         25.3920   18.2960   62.0730 O.2   276  PHE276     -0.2867
    189  CB        28.0140   17.7750   63.6190 C.3   276  PHE276      0.0534
    190  CG        29.4490   17.3460   63.6560 C.ar  276  PHE276     -0.0203
    191  CD1       30.0010   16.6380   62.6020 C.ar  276  PHE276     -0.0042
    192  CD2       30.2490   17.6540   64.7460 C.ar  276  PHE276     -0.0042
    193  CE1       31.3220   16.2440   62.6350 C.ar  276  PHE276     -0.0003
    194  CE2       31.5750   17.2610   64.7810 C.ar  276  PHE276     -0.0003
    195  CZ        32.1090   16.5560   63.7260 C.ar  276  PHE276     -0.0000
@<TRIPOS>BOND
     1   113   112    2
     2   112   111    1
     3   110   111    1
     4   169   170    1
     5   111   114    1
     6   172   171    2
     7   156   155    2
     8   171   170    1
     9   170   173    1
    10   114   115    1
    11   164   163    2
    12   155   154    1
    13   155   161   am
    14   157   154    1
    15   157   158    1
    16   154   153    1
    17   179   178    2
    18   176   177    1
    19   117   115    1
    20   163   162    1
    21   173   174    1
    22   173   175    1
    23   115   116    1
    24   162   161    1
    25   162   165    1
    26   167   166   ar
    27   160   158   ar
    28   178   177    1
    29   158   159   ar
    30   177   180    1
    31   166   165    1
    32   166   168   ar
    33   107   106    2
    34   180   181    1
    35    76    77    1
    36   106   105    1
    37   118   119    1
    38    79    78    2
    39   181   182    1
    40   131   129    1
    41   123   122    1
    42    78    77    1
    43    78    86   am
    44    77    80    1
    45   124   125    1
    46    83    81   ar
    47    83    85   ar
    48   119   122    1
    49   119   120    1
    50   105   104    1
    51   105   108    1
    52   152   151    2
    53   129   128    1
    54   104    94   am
    55   182   183   ar
    56   182   184   ar
    57    80    81    1
    58   108   109    1
    59   151   150    1
    60    81    82   ar
    61    85    84   ar
    62    86    87    1
    63   120   121    2
    64    87    90    1
    65    87    88    1
    66    90    91    1
    67   125   128    1
    68   125   126    1
    69    94    93    1
    70    94    95    2
    71   128   130    1
    72    93    96    1
    73    93    92    1
    74   150   149    1
    75    84    82   ar
    76    56    55    2
    77   126   132   am
    78   126   127    2
    79    96    97    1
    80    88    92   am
    81    88    89    2
    82    57    55   am
    83   132   133    1
    84    25    24    2
    85    55    54    1
    86   135   134    2
    87    29    28   ar
    88   147   146    2
    89   134   133    1
    90   133   136    1
    91    99    97   ar
    92    99   101   ar
    93    97    98   ar
    94    24    23    1
    95    26    23    1
    96    26    27    1
    97    28    27    1
    98    28    30   ar
    99   144   145    1
   100    54    51    1
   101   146   145    1
   102    23    22    1
   103   101   102   ar
   104    53    52    2
   105    98   100   ar
   106     1     2    1
   107    51    52    1
   108    51    50    1
   109   136   137    1
   110   145   148    1
   111     7     9   ar
   112     7     6   ar
   113   137   139   ar
   114   137   138   ar
   115    52    58   am
   116     9    10   ar
   117   139   141   ar
   118     4     3    2
   119   138   140   ar
   120   102   100   ar
   121   102   103    1
   122    22    13   am
   123     5     6    1
   124     5     2    1
   125   188   187    2
   126     6     8   ar
   127   141   142   ar
   128   140   142   ar
   129     2     3    1
   130   142   143    1
   131   186   187    1
   132   186   185    1
   133   186   189    1
   134    10     8   ar
   135   191   193   ar
   136   191   190   ar
   137   193   195   ar
   138    58    59    1
   139    14    13    2
   140    13    12    1
   141    59    60    1
   142    59    62    1
   143    60    61    2
   144   189   190    1
   145   190   192   ar
   146   195   194   ar
   147    63    62    1
   148    63    64    1
   149    48    47   ar
   150    41    39    1
   151    11    12    1
   152    68    66    1
   153    12    15    1
   154    67    66    1
   155    66    65    2
   156   192   194   ar
   157    45    44    2
   158    49    47   ar
   159    47    46    1
   160    65    64    1
   161    16    15    1
   162    16    17    1
   163    44    43    1
   164    39    40    1
   165    39    38    2
   166    34    33    2
   167    18    17    1
   168    18    19    2
   169    38    37    1
   170    46    43    1
   171    43    42    1
   172    21    19    1
   173    35    32    1
   174    35    36    1
   175    33    32    1
   176    19    20    1
   177    32    31    1
   178    37    36    1
   179    75    73    1
   180    73    70    1
   181    73    74    1
   182    72    71    2
   183    70    71    1
   184    70    69    1
