@<TRIPOS>MOLECULE
tmp/2pj0B00.pdb
 204 192 0 0 0
SMALL
GASTEIGER

@<TRIPOS>ATOM
      1  N         26.2570   20.0830   91.6510 N.3    64  HIS64      -0.1241
      2  CA        25.2270   21.0190   91.2530 C.3    64  HIS64       0.1621
      3  C         25.7210   21.8820   90.1020 C.2    64  HIS64       0.2264
      4  O         26.7860   22.4920   90.1720 O.2    64  HIS64      -0.2867
      5  CB        24.8070   21.8720   92.4560 C.3    64  HIS64       0.0745
      6  CG        23.9930   21.1180   93.4640 C.ar   64  HIS64       0.0817
      7  ND1       24.1750   21.2870   94.8130 N.ar   64  HIS64      -0.2268
      8  CD2       22.9940   20.2230   93.2560 C.ar   64  HIS64       0.1154
      9  CE1       23.2860   20.5050   95.3970 C.ar   64  HIS64       0.1986
     10  NE2       22.5460   19.8390   94.4960 N.ar   64  HIS64      -0.2212
     11  N         25.1450   24.7050   88.4880 N.3    66  ARG66      -0.1231
     12  CA        25.4530   26.1370   88.4860 C.3    66  ARG66       0.1694
     13  C         26.6290   26.5590   89.3730 C.2    66  ARG66       0.2591
     14  O         27.0880   27.7010   89.2890 O.2    66  ARG66      -0.2718
     15  CB        24.2130   26.9330   88.8940 C.3    66  ARG66       0.0321
     16  CG        23.7220   26.6240   90.2960 C.3    66  ARG66       0.0489
     17  CD        22.2910   27.0970   90.4730 C.3    66  ARG66       0.2205
     18  NE        21.7610   26.7930   91.7970 N.pl3  66  ARG66      -0.0865
     19  CZ        20.5290   27.1060   92.1870 C.cat  66  ARG66       0.5346
     20  NH1       19.7100   27.7310   91.3500 N.pl3  66  ARG66       0.1354
     21  NH2       20.1160   26.7980   93.4080 N.pl3  66  ARG66       0.1354
     22  N         27.1180   25.6480   90.2120 N.am   67  GLU67      -0.1979
     23  CA        28.1710   25.9740   91.1750 C.3    67  GLU67       0.1602
     24  C         29.5590   25.8320   90.5570 C.2    67  GLU67       0.2287
     25  O         30.3590   24.9960   90.9770 O.2    67  GLU67      -0.2864
     26  CB        28.0340   25.0750   92.4120 C.3    67  GLU67       0.0415
     27  CG        26.7190   25.2970   93.1350 C.3    67  GLU67       0.1163
     28  CD        26.4090   24.2510   94.1760 C.2    67  GLU67       0.3649
     29  OE1       25.2360   24.1990   94.5970 O.co2  67  GLU67      -0.2457
     30  OE2       27.3270   23.4950   94.5690 O.co2  67  GLU67      -0.2457
     31  N         20.2610   23.6460   88.3360 N.3   122  ARG122     -0.1245
     32  CA        20.8320   22.9710   89.5050 C.3   122  ARG122      0.1563
     33  C         20.9030   21.4570   89.3290 C.2   122  ARG122      0.2260
     34  O         21.9320   20.8390   89.5960 O.2   122  ARG122     -0.2867
     35  CB        20.0050   23.2950   90.7600 C.3   122  ARG122      0.0307
     36  CG        20.2610   22.3810   91.9750 C.3   122  ARG122      0.0489
     37  CD        19.2640   22.7060   93.0910 C.3   122  ARG122      0.2205
     38  NE        19.4130   21.8790   94.2920 N.pl3 122  ARG122     -0.0865
     39  CZ        20.2440   22.1640   95.2900 C.cat 122  ARG122      0.5346
     40  NH1       21.0100   23.2470   95.2240 N.pl3 122  ARG122      0.1354
     41  NH2       20.2870   21.3900   96.3700 N.pl3 122  ARG122      0.1354
     42  N         21.9900   15.7420   95.1470 N.3   139  ASN139     -0.1225
     43  CA        22.2560   15.7170   96.5770 C.3   139  ASN139      0.1785
     44  C         21.0110   15.5300   97.4350 C.2   139  ASN139      0.2597
     45  O         21.0220   15.8180   98.6320 O.2   139  ASN139     -0.2718
     46  CB        23.0150   16.9690   97.0190 C.3   139  ASN139      0.1169
     47  CG        23.9780   16.6760   98.1480 C.2   139  ASN139      0.2627
     48  OD1       24.4850   15.5570   98.2670 O.2   139  ASN139     -0.2716
     49  ND2       24.2350   17.6700   98.9880 N.am  139  ASN139     -0.0877
     50  N         19.9410   15.0370   96.8220 N.am  140  ARG140     -0.1979
     51  CA        18.7930   14.5430   97.5800 C.3   140  ARG140      0.1597
     52  C         18.4960   13.0990   97.1830 C.2   140  ARG140      0.2287
     53  O         17.4780   12.5350   97.5730 O.2   140  ARG140     -0.2864
     54  CB        17.5520   15.3970   97.3020 C.3   140  ARG140      0.0334
     55  CG        17.7170   16.8670   97.6310 C.3   140  ARG140      0.0492
     56  CD        17.7680   17.0940   99.1290 C.3   140  ARG140      0.2205
     57  NE        17.8100   18.5190   99.4460 N.pl3 140  ARG140     -0.0865
     58  CZ        18.8980   19.2720   99.3420 C.cat 140  ARG140      0.5346
     59  NH1       20.0440   18.7340   98.9290 N.pl3 140  ARG140      0.1354
     60  NH2       18.8380   20.5670   99.6430 N.pl3 140  ARG140      0.1354
     61  N         13.4480   18.0010  104.0830 N.3   150  GLY150     -0.1225
     62  CA        14.2260   18.9440  103.2930 C.3   150  GLY150      0.1811
     63  C         14.3800   18.5310  101.8370 C.2   150  GLY150      0.2280
     64  O         15.3590   18.8850  101.1700 O.2   150  GLY150     -0.2866
     65  N         13.3350   22.1210   92.9080 N.3   158  GLU158     -0.1231
     66  CA        14.7840   22.1130   92.7830 C.3   158  GLU158      0.1699
     67  C         15.4460   21.0970   93.7010 C.2   158  GLU158      0.2592
     68  O         16.6090   20.7510   93.4960 O.2   158  GLU158     -0.2718
     69  CB        15.3520   23.5060   93.0630 C.3   158  GLU158      0.0402
     70  CG        14.9530   24.5450   92.0320 C.3   158  GLU158      0.1161
     71  CD        15.3690   24.1560   90.6260 C.2   158  GLU158      0.3649
     72  OE1       16.5050   23.6730   90.4560 O.co2 158  GLU158     -0.2457
     73  OE2       14.5590   24.3290   89.6890 O.co2 158  GLU158     -0.2457
     74  N         14.7110   20.6170   94.7030 N.am  159  THR159     -0.1953
     75  CA        15.2280   19.5780   95.5950 C.3   159  THR159      0.1897
     76  C         14.4970   18.2520   95.4300 C.2   159  THR159      0.2313
     77  O         14.4650   17.4310   96.3520 O.2   159  THR159     -0.2863
     78  CB        15.1290   19.9830   97.0800 C.3   159  THR159      0.1794
     79  OG1       13.7560   20.1860   97.4320 O.3   159  THR159     -0.2208
     80  CG2       15.9230   21.2540   97.3420 C.3   159  THR159      0.0378
     81  N         31.0380   22.2660   96.8890 N.3   192  HIS192     -0.1226
     82  CA        29.8540   23.0000   96.4380 C.3   192  HIS192      0.1752
     83  C         30.1290   24.5060   96.5160 C.2   192  HIS192      0.2597
     84  O         31.1970   24.9210   96.9600 O.2   192  HIS192     -0.2718
     85  CB        28.6600   22.6730   97.3400 C.3   192  HIS192      0.0759
     86  CG        28.0810   21.3050   97.1290 C.ar  192  HIS192      0.0818
     87  ND1       26.8590   21.1360   96.5310 N.ar  192  HIS192     -0.2268
     88  CD2       28.5650   20.0980   97.5090 C.ar  192  HIS192      0.1154
     89  CE1       26.6150   19.8400   96.5660 C.ar  192  HIS192      0.1986
     90  NE2       27.6170   19.1650   97.1470 N.ar  192  HIS192     -0.2212
     91  N         29.1630   25.3140   96.0890 N.am  193  SER193     -0.1938
     92  CA        29.1490   26.7400   96.4330 C.3   193  SER193      0.2055
     93  C         27.6860   27.1790   96.4630 C.2   193  SER193      0.2643
     94  O         26.8270   26.4550   95.9670 O.2   193  SER193     -0.2714
     95  CB        29.9190   27.5540   95.3920 C.3   193  SER193      0.2130
     96  OG        29.1680   27.7080   94.1990 O.3   193  SER193     -0.2179
     97  N         27.3840   28.3390   97.0440 N.am  194  TYR194     -0.1959
     98  CA        28.3410   29.1860   97.7560 C.3   194  TYR194      0.1771
     99  C         27.9080   29.2520   99.2170 C.2   194  TYR194      0.2620
    100  O         26.9080   28.6430   99.5860 O.2   194  TYR194     -0.2715
    101  CB        28.3230   30.5970   97.1660 C.3   194  TYR194      0.0574
    102  CG        26.9450   31.2170   97.1850 C.ar  194  TYR194     -0.0198
    103  CD1       26.0200   30.9250   96.1920 C.ar  194  TYR194     -0.0009
    104  CD2       26.5550   32.0690   98.2140 C.ar  194  TYR194     -0.0009
    105  CE1       24.7440   31.4560   96.2180 C.ar  194  TYR194      0.0417
    106  CE2       25.2760   32.6070   98.2480 C.ar  194  TYR194      0.0417
    107  CZ        24.3770   32.2940   97.2470 C.ar  194  TYR194      0.1957
    108  OH        23.1000   32.8150   97.2660 O.3   194  TYR194     -0.2866
    109  N         28.6650   29.9830  100.0340 N.am  195  SER195     -0.1950
    110  CA        28.2770   30.2990  101.4120 C.3   195  SER195      0.1924
    111  C         29.4610   30.4120  102.3540 C.2   195  SER195      0.2314
    112  O         29.3260   30.9530  103.4480 O.2   195  SER195     -0.2863
    113  CB        27.3220   29.2450  101.9820 C.3   195  SER195      0.2116
    114  OG        26.0740   29.8310  102.2850 O.3   195  SER195     -0.2180
    115  N         30.5090   21.9820  106.2790 N.3   199  LEU199     -0.1245
    116  CA        29.4600   21.2610  106.9860 C.3   199  LEU199      0.1561
    117  C         29.8230   19.7830  107.0990 C.2   199  LEU199      0.2260
    118  O         30.5360   19.2410  106.2540 O.2   199  LEU199     -0.2867
    119  CB        28.1200   21.3990  106.2460 C.3   199  LEU199      0.0270
    120  CG        27.4970   22.7840  106.0500 C.3   199  LEU199      0.0019
    121  CD1       27.6040   23.5930  107.3410 C.3   199  LEU199      0.0001
    122  CD2       28.1950   23.5030  104.9190 C.3   199  LEU199      0.0001
    123  N         22.6420   15.9830  108.0510 N.3   203  SER203     -0.1217
    124  CA        21.5970   16.8520  107.5330 C.3   203  SER203      0.1889
    125  C         20.2300   16.1750  107.5090 C.2   203  SER203      0.2288
    126  O         19.2100   16.8470  107.6370 O.2   203  SER203     -0.2866
    127  CB        21.9560   17.3370  106.1260 C.3   203  SER203      0.2089
    128  OG        23.0120   18.2830  106.1750 O.3   203  SER203     -0.2183
    129  N         25.2520   19.8260  109.4730 N.3   239  GLY239     -0.1225
    130  CA        24.4640   20.4550  108.4290 C.3   239  GLY239      0.1811
    131  C         23.0540   20.8550  108.8210 C.2   239  GLY239      0.2280
    132  O         22.5800   21.9240  108.4330 O.2   239  GLY239     -0.2866
    133  N         22.9350   24.8780  108.5130 N.3   243  ILE243     -0.1231
    134  CA        22.4150   25.5090  107.3060 C.3   243  ILE243      0.1692
    135  C         20.9310   25.1970  107.0700 C.2   243  ILE243      0.2592
    136  O         20.0990   26.1060  107.0550 O.2   243  ILE243     -0.2718
    137  CB        23.2800   25.1200  106.0660 C.3   243  ILE243      0.0266
    138  CG1       22.8180   25.9050  104.8390 C.3   243  ILE243      0.0019
    139  CG2       23.2160   23.6230  105.8200 C.3   243  ILE243      0.0020
    140  CD1       23.6790   25.6790  103.6110 C.3   243  ILE243      0.0001
    141  N         20.5950   23.9230  106.8970 N.am  244  TYR244     -0.1976
    142  CA        19.1990   23.4920  106.9060 C.3   244  TYR244      0.1639
    143  C         19.0970   21.9770  106.8860 C.2   244  TYR244      0.2290
    144  O         20.0160   21.2920  106.4440 O.2   244  TYR244     -0.2864
    145  CB        18.4310   24.0770  105.7100 C.3   244  TYR244      0.0560
    146  CG        19.1810   24.0660  104.3890 C.ar  244  TYR244     -0.0198
    147  CD1       19.5970   22.8730  103.8040 C.ar  244  TYR244     -0.0009
    148  CD2       19.4460   25.2530  103.7130 C.ar  244  TYR244     -0.0009
    149  CE1       20.2560   22.8660  102.5810 C.ar  244  TYR244      0.0417
    150  CE2       20.1020   25.2550  102.4940 C.ar  244  TYR244      0.0417
    151  CZ        20.5040   24.0620  101.9320 C.ar  244  TYR244      0.1957
    152  OH        21.1650   24.0670  100.7240 O.3   244  TYR244     -0.2866
    153  N         18.1030   18.4460  105.4420 N.3   246  ALA246     -0.1245
    154  CA        17.9230   17.9470  104.0840 C.3   246  ALA246      0.1562
    155  C         18.4020   16.5040  104.0150 C.2   246  ALA246      0.2260
    156  O         19.5160   16.1970  104.4260 O.2   246  ALA246     -0.2867
    157  CB        18.7110   18.8050  103.1020 C.3   246  ALA246      0.0290
    158  N         21.6200   13.3750  101.0960 N.3   249  GLY249     -0.1225
    159  CA        22.9010   13.9580  100.7260 C.3   249  GLY249      0.1811
    160  C         24.0450   12.9600  100.7700 C.2   249  GLY249      0.2280
    161  O         24.0270   12.0090  101.5620 O.2   249  GLY249     -0.2866
    162  N         27.1720   13.4150  101.6610 N.3   251  ASP251     -0.1225
    163  CA        28.0220   13.5050  102.8350 C.3   251  ASP251      0.1805
    164  C         27.4880   12.6310  103.9740 C.2   251  ASP251      0.2597
    165  O         28.2480   11.8970  104.5910 O.2   251  ASP251     -0.2718
    166  CB        28.1830   14.9620  103.2900 C.3   251  ASP251      0.1424
    167  CG        26.8590   15.6480  103.5750 C.2   251  ASP251      0.3668
    168  OD1       25.7950   15.0410  103.3330 O.co2 251  ASP251     -0.2456
    169  OD2       26.8880   16.8050  104.0430 O.co2 251  ASP251     -0.2456
    170  N         26.1840   12.6780  104.2300 N.am  252  ASP252     -0.1974
    171  CA        25.5960   11.8140  105.2560 C.3   252  ASP252      0.1709
    172  C         25.7030   10.3490  104.8360 C.2   252  ASP252      0.2293
    173  O         25.9880    9.4730  105.6600 O.2   252  ASP252     -0.2864
    174  CB        24.1190   12.1600  105.4810 C.3   252  ASP252      0.1436
    175  CG        23.9180   13.5110  106.1500 C.2   252  ASP252      0.3671
    176  OD1       24.9120   14.1360  106.5760 O.co2 252  ASP252     -0.2456
    177  OD2       22.7540   13.9500  106.2490 O.co2 252  ASP252     -0.2456
    178  N         30.9930   18.6070  103.5320 N.3   264  THR264     -0.1218
    179  CA        30.5440   19.3910  102.3930 C.3   264  THR264      0.1862
    180  C         31.2030   20.7690  102.4920 C.2   264  THR264      0.2287
    181  O         31.0770   21.4460  103.5100 O.2   264  THR264     -0.2866
    182  CB        29.0020   19.5530  102.4090 C.3   264  THR264      0.1770
    183  OG1       28.3840   18.2740  102.2060 O.3   264  THR264     -0.2211
    184  CG2       28.5460   20.5100  101.3230 C.3   264  THR264      0.0375
    185  N         31.3820   24.6010  101.0630 N.3   266  GLU266     -0.1245
    186  CA        30.7180   25.6540  100.3060 C.3   266  GLU266      0.1567
    187  C         31.7140   26.7920  100.1340 C.2   266  GLU266      0.2260
    188  O         32.0710   27.4580  101.1070 O.2   266  GLU266     -0.2867
    189  CB        29.4780   26.1690  101.0570 C.3   266  GLU266      0.0388
    190  CG        28.3300   25.1560  101.1820 C.3   266  GLU266      0.1160
    191  CD        27.6790   24.8290   99.8480 C.2   266  GLU266      0.3649
    192  OE1       27.9530   25.5390   98.8590 O.co2 266  GLU266     -0.2457
    193  OE2       26.8890   23.8610   99.7890 O.co2 266  GLU266     -0.2457
    194  N         26.3580   32.2520   92.8010 N.3   275  PHE275     -0.1241
    195  CA        26.8280   31.1910   91.9170 C.3   275  PHE275      0.1605
    196  C         27.6880   31.7190   90.7760 C.2   275  PHE275      0.2264
    197  O         28.4800   30.9790   90.1910 O.2   275  PHE275     -0.2867
    198  CB        25.6390   30.4260   91.3400 C.3   275  PHE275      0.0534
    199  CG        24.7940   29.7580   92.3810 C.ar  275  PHE275     -0.0203
    200  CD1       25.3390   28.7920   93.2110 C.ar  275  PHE275     -0.0042
    201  CD2       23.4600   30.1050   92.5400 C.ar  275  PHE275     -0.0042
    202  CE1       24.5710   28.1800   94.1870 C.ar  275  PHE275     -0.0003
    203  CE2       22.6850   29.5010   93.5100 C.ar  275  PHE275     -0.0003
    204  CZ        23.2410   28.5350   94.3380 C.ar  275  PHE275     -0.0000
@<TRIPOS>BOND
     1    31    32    1
     2    12    11    1
     3    12    15    1
     4    12    13    1
     5    15    16    1
     6    14    13    2
     7    33    32    1
     8    33    34    2
     9    13    22   am
    10    32    35    1
    11    73    71   ar
    12     3     4    2
    13     3     2    1
    14   197   196    2
    15    22    23    1
    16    16    17    1
    17    72    71   ar
    18    17    18    1
    19    24    25    2
    20    24    23    1
    21    71    70    1
    22    35    36    1
    23   196   195    1
    24    23    26    1
    25     2     1    1
    26     2     5    1
    27   198   195    1
    28   198   199    1
    29    20    19    1
    30    18    19    2
    31   195   194    1
    32    36    37    1
    33    70    69    1
    34    19    21    1
    35   199   201   ar
    36   199   200   ar
    37    26    27    1
    38     5     6    1
    39   201   203   ar
    40    66    65    1
    41    66    69    1
    42    66    67    1
    43    37    38    1
    44    27    28    1
    45   200   202   ar
    46     8     6   ar
    47     8    10   ar
    48     6     7   ar
    49    68    67    2
    50   203   204   ar
    51    67    74   am
    52    28    30   ar
    53    28    29   ar
    54   202   204   ar
    55    96    95    1
    56    38    39    2
    57    10     9   ar
    58    74    75    1
    59     7     9   ar
    60    42    43    1
    61    40    39    1
    62    39    41    1
    63    95    92    1
    64    76    75    1
    65    76    77    2
    66    75    78    1
    67    94    93    2
    68    91    92    1
    69    91    83   am
    70   103   105   ar
    71   103   102   ar
    72   105   107   ar
    73    92    93    1
    74    82    83    1
    75    82    81    1
    76    82    85    1
    77    93    97   am
    78    83    84    2
    79    87    89   ar
    80    87    86   ar
    81    89    90   ar
    82    43    46    1
    83    43    44    1
    84    50    44   am
    85    50    51    1
    86    46    47    1
    87    97    98    1
    88    78    80    1
    89    78    79    1
    90    86    85    1
    91    86    88   ar
    92    90    88   ar
    93   101   102    1
    94   101    98    1
    95    52    53    2
    96    52    51    1
    97   102   104   ar
    98   107   108    1
    99   107   106   ar
   100    54    51    1
   101    54    55    1
   102    44    45    2
   103    55    56    1
   104    98    99    1
   105    47    48    2
   106    47    49   am
   107   104   106   ar
   108   192   191   ar
   109    59    58    1
   110    56    57    1
   111    99   100    2
   112    99   109   am
   113    58    57    2
   114    58    60    1
   115   193   191   ar
   116   191   190    1
   117   109   110    1
   118   187   186    1
   119   187   188    2
   120   186   189    1
   121   186   185    1
   122   152   151    1
   123   159   160    1
   124   159   158    1
   125   160   161    2
   126   189   190    1
   127    64    63    2
   128   184   182    1
   129   110   113    1
   130   110   111    1
   131   162   163    1
   132    63    62    1
   133   151   150   ar
   134   151   149   ar
   135   113   114    1
   136   183   182    1
   137   111   112    2
   138   179   182    1
   139   179   180    1
   140   179   178    1
   141   180   181    2
   142   150   148   ar
   143   149   147   ar
   144   163   166    1
   145   163   164    1
   146   157   154    1
   147   166   167    1
   148    62    61    1
   149   168   167   ar
   150   167   169   ar
   151   140   138    1
   152   148   146   ar
   153   147   146   ar
   154   164   170   am
   155   164   165    2
   156   155   154    1
   157   155   156    2
   158   154   153    1
   159   170   171    1
   160   146   145    1
   161   172   171    1
   162   172   173    2
   163   138   137    1
   164   122   120    1
   165   171   174    1
   166   174   175    1
   167   145   142    1
   168   139   137    1
   169   120   119    1
   170   120   121    1
   171   137   134    1
   172   127   128    1
   173   127   124    1
   174   175   177   ar
   175   175   176   ar
   176   119   116    1
   177   118   117    2
   178   115   116    1
   179   144   143    2
   180   143   142    1
   181   141   142    1
   182   141   135   am
   183   116   117    1
   184   136   135    2
   185   135   134    1
   186   134   133    1
   187   125   124    1
   188   125   126    2
   189   124   123    1
   190   130   131    1
   191   130   129    1
   192   132   131    2
