@<TRIPOS>MOLECULE
tmp/2pj1B00.pdb
 192 181 0 0 0
SMALL
GASTEIGER

@<TRIPOS>ATOM
      1  N         26.0990   19.9250   91.3320 N.3    65  HIS65      -0.1241
      2  CA        25.1290   20.9000   90.8650 C.3    65  HIS65       0.1621
      3  C         25.6810   21.7040   89.6980 C.2    65  HIS65       0.2264
      4  O         26.7750   22.2680   89.7730 O.2    65  HIS65      -0.2867
      5  CB        24.7280   21.8190   92.0220 C.3    65  HIS65       0.0745
      6  CG        23.8500   21.1490   93.0340 C.ar   65  HIS65       0.0817
      7  ND1       23.9980   21.3680   94.3800 N.ar   65  HIS65      -0.2268
      8  CD2       22.8360   20.2700   92.8300 C.ar   65  HIS65       0.1154
      9  CE1       23.0790   20.6230   94.9650 C.ar   65  HIS65       0.1986
     10  NE2       22.3500   19.9400   94.0670 N.ar   65  HIS65      -0.2212
     11  N         25.2460   24.5140   87.9870 N.3    67  ARG67      -0.1231
     12  CA        25.6000   25.9300   87.9360 C.3    67  ARG67       0.1694
     13  C         26.7810   26.3150   88.8210 C.2    67  ARG67       0.2591
     14  O         27.2850   27.4330   88.7250 O.2    67  ARG67      -0.2718
     15  CB        24.3900   26.7880   88.3120 C.3    67  ARG67       0.0321
     16  CG        23.8600   26.5470   89.7200 C.3    67  ARG67       0.0489
     17  CD        22.4730   27.1480   89.8550 C.3    67  ARG67       0.2205
     18  NE        21.8620   26.8850   91.1530 N.pl3  67  ARG67      -0.0865
     19  CZ        20.5930   27.1620   91.4370 C.cat  67  ARG67       0.5346
     20  NH1       19.8120   27.7010   90.5100 N.pl3  67  ARG67       0.1354
     21  NH2       20.1060   26.9110   92.6450 N.pl3  67  ARG67       0.1354
     22  N         27.2190   25.4050   89.6860 N.am   68  GLU68      -0.1979
     23  CA        28.2680   25.7310   90.6470 C.3    68  GLU68       0.1602
     24  C         29.6500   25.5290   90.0290 C.2    68  GLU68       0.2287
     25  O         30.3970   24.6370   90.4260 O.2    68  GLU68      -0.2864
     26  CB        28.0960   24.8740   91.9120 C.3    68  GLU68       0.0415
     27  CG        26.7640   25.1400   92.6190 C.3    68  GLU68       0.1163
     28  CD        26.4440   24.1420   93.7180 C.2    68  GLU68       0.3649
     29  OE1       25.2780   24.1150   94.1650 O.co2  68  GLU68      -0.2457
     30  OE2       27.3460   23.3920   94.1350 O.co2  68  GLU68      -0.2457
     31  N         20.3960   23.5350   87.7930 N.3   123  ARG123     -0.1245
     32  CA        20.9130   22.8970   88.9990 C.3   123  ARG123      0.1563
     33  C         20.9080   21.3730   88.8940 C.2   123  ARG123      0.2260
     34  O         21.9030   20.7160   89.2060 O.2   123  ARG123     -0.2867
     35  CB        20.0680   23.3350   90.2010 C.3   123  ARG123      0.0307
     36  CG        20.2590   22.5230   91.4810 C.3   123  ARG123      0.0489
     37  CD        19.2880   23.0110   92.5450 C.3   123  ARG123      0.2205
     38  NE        19.3250   22.2230   93.7750 N.pl3 123  ARG123     -0.0865
     39  CZ        20.1760   22.4360   94.7740 C.cat 123  ARG123      0.5346
     40  NH1       21.0710   23.4100   94.6890 N.pl3 123  ARG123      0.1354
     41  NH2       20.1180   21.6880   95.8680 N.pl3 123  ARG123      0.1354
     42  N         21.7080   15.8780   94.9620 N.3   140  ASN140     -0.1225
     43  CA        21.9740   15.9390   96.3920 C.3   140  ASN140      0.1785
     44  C         20.7000   15.8670   97.2290 C.2   140  ASN140      0.2597
     45  O         20.6950   16.2370   98.4070 O.2   140  ASN140     -0.2718
     46  CB        22.7580   17.2050   96.7470 C.3   140  ASN140      0.1169
     47  CG        23.7310   16.9730   97.8880 C.2   140  ASN140      0.2627
     48  OD1       24.2400   15.8640   98.0570 O.2   140  ASN140     -0.2716
     49  ND2       23.9890   18.0090   98.6780 N.am  140  ASN140     -0.0877
     50  N         19.6210   15.3900   96.6140 N.am  141  ARG141     -0.1979
     51  CA        18.4590   14.9220   97.3630 C.3   141  ARG141      0.1597
     52  C         18.1690   13.4710   96.9870 C.2   141  ARG141      0.2287
     53  O         17.1340   12.9250   97.3620 O.2   141  ARG141     -0.2864
     54  CB        17.2220   15.7750   97.0490 C.3   141  ARG141      0.0334
     55  CG        17.3900   17.2650   97.3130 C.3   141  ARG141      0.0492
     56  CD        17.4780   17.5780   98.7990 C.3   141  ARG141      0.2205
     57  NE        17.5560   19.0190   99.0240 N.pl3 141  ARG141     -0.0865
     58  CZ        18.6700   19.7300   98.8980 C.cat 141  ARG141      0.5346
     59  NH1       19.8020   19.1290   98.5520 N.pl3 141  ARG141      0.1354
     60  NH2       18.6480   21.0450   99.0960 N.pl3 141  ARG141      0.1354
     61  N         13.3190   22.4660   92.2040 N.3   159  GLU159     -0.1231
     62  CA        14.7790   22.4510   92.1880 C.3   159  GLU159      0.1699
     63  C         15.3640   21.4060   93.1290 C.2   159  GLU159      0.2592
     64  O         16.5150   20.9940   92.9690 O.2   159  GLU159     -0.2718
     65  CB        15.3200   23.8290   92.5700 C.3   159  GLU159      0.0402
     66  CG        15.1550   24.8710   91.4840 C.3   159  GLU159      0.1161
     67  CD        16.0520   24.5970   90.2950 C.2   159  GLU159      0.3649
     68  OE1       15.6040   23.9090   89.3550 O.co2 159  GLU159     -0.2457
     69  OE2       17.2090   25.0670   90.3040 O.co2 159  GLU159     -0.2457
     70  N         14.5790   20.9910   94.1170 N.am  160  THR160     -0.1953
     71  CA        15.0380   19.9890   95.0710 C.3   160  THR160      0.1897
     72  C         14.2790   18.6800   94.9280 C.2   160  THR160      0.2313
     73  O         14.1410   17.9260   95.8920 O.2   160  THR160     -0.2863
     74  CB        14.8950   20.4790   96.5230 C.3   160  THR160      0.1794
     75  OG1       13.5180   20.7690   96.8040 O.3   160  THR160     -0.2208
     76  CG2       15.7390   21.7240   96.7450 C.3   160  THR160      0.0378
     77  N         30.7750   22.0660   96.6950 N.3   193  HIS193     -0.1226
     78  CA        29.6610   22.8660   96.1880 C.3   193  HIS193      0.1752
     79  C         30.0450   24.3470   96.2550 C.2   193  HIS193      0.2597
     80  O         31.1010   24.6950   96.7720 O.2   193  HIS193     -0.2718
     81  CB        28.4060   22.6450   97.0460 C.3   193  HIS193      0.0759
     82  CG        27.7470   21.3130   96.8440 C.ar  193  HIS193      0.0818
     83  ND1       26.5140   21.2090   96.2500 N.ar  193  HIS193     -0.2268
     84  CD2       28.1790   20.0790   97.2030 C.ar  193  HIS193      0.1154
     85  CE1       26.2190   19.9220   96.2620 C.ar  193  HIS193      0.1986
     86  NE2       27.1960   19.1960   96.8290 N.ar  193  HIS193     -0.2212
     87  N         29.1820   25.2090   95.7220 N.am  194  SER194     -0.1938
     88  CA        29.2070   26.6360   96.0470 C.3   194  SER194      0.2055
     89  C         27.7570   27.1110   96.0540 C.2   194  SER194      0.2643
     90  O         26.8870   26.4090   95.5470 O.2   194  SER194     -0.2714
     91  CB        30.0160   27.4180   95.0030 C.3   194  SER194      0.2130
     92  OG        29.3190   27.5370   93.7750 O.3   194  SER194     -0.2179
     93  N         27.4760   28.2750   96.6360 N.am  195  TYR195     -0.1959
     94  CA        28.4500   29.1080   97.3350 C.3   195  TYR195      0.1771
     95  C         27.9860   29.2620   98.7830 C.2   195  TYR195      0.2620
     96  O         26.8910   28.8220   99.1260 O.2   195  TYR195     -0.2715
     97  CB        28.5090   30.4890   96.6710 C.3   195  TYR195      0.0574
     98  CG        27.1570   31.1720   96.6080 C.ar  195  TYR195     -0.0198
     99  CD1       26.2600   30.8850   95.5870 C.ar  195  TYR195     -0.0009
    100  CD2       26.7640   32.0700   97.5910 C.ar  195  TYR195     -0.0009
    101  CE1       25.0080   31.4710   95.5480 C.ar  195  TYR195      0.0417
    102  CE2       25.5120   32.6620   97.5610 C.ar  195  TYR195      0.0417
    103  CZ        24.6390   32.3580   96.5380 C.ar  195  TYR195      0.1957
    104  OH        23.3880   32.9390   96.5090 O.3   195  TYR195     -0.2866
    105  N         28.8240   29.8860   99.6130 N.am  196  SER196     -0.1950
    106  CA        28.4560   30.3460  100.9610 C.3   196  SER196      0.1924
    107  C         29.6580   30.4390  101.8910 C.2   196  SER196      0.2314
    108  O         29.5570   31.0020  102.9850 O.2   196  SER196     -0.2863
    109  CB        27.4120   29.4280  101.6100 C.3   196  SER196      0.2116
    110  OG        26.0980   29.8800  101.3350 O.3   196  SER196     -0.2180
    111  N         30.5520   22.0920  105.9630 N.3   200  LEU200     -0.1245
    112  CA        29.4410   21.4020  106.6050 C.3   200  LEU200      0.1561
    113  C         29.7940   19.9440  106.8700 C.2   200  LEU200      0.2260
    114  O         30.5920   19.3430  106.1480 O.2   200  LEU200     -0.2867
    115  CB        28.2010   21.4570  105.7140 C.3   200  LEU200      0.0270
    116  CG        27.8280   22.8300  105.1550 C.3   200  LEU200      0.0019
    117  CD1       26.6180   22.6890  104.2480 C.3   200  LEU200      0.0001
    118  CD2       27.5420   23.7990  106.2980 C.3   200  LEU200      0.0001
    119  N         22.1910   16.6720  107.6090 N.3   204  SER204     -0.1217
    120  CA        21.2860   17.5800  106.9160 C.3   204  SER204      0.1889
    121  C         19.8650   17.0290  106.8240 C.2   204  SER204      0.2288
    122  O         18.9190   17.7920  106.6390 O.2   204  SER204     -0.2866
    123  CB        21.8050   17.8850  105.5050 C.3   204  SER204      0.2089
    124  OG        23.0560   18.5540  105.5540 O.3   204  SER204     -0.2183
    125  N         25.0040   20.3340  108.8130 N.3   240  GLY240     -0.1225
    126  CA        24.3200   20.8950  107.6620 C.3   240  GLY240      0.1811
    127  C         22.9640   21.5270  107.9260 C.2   240  GLY240      0.2280
    128  O         22.7090   22.6500  107.4930 O.2   240  GLY240     -0.2866
    129  N         22.8850   25.6130  107.3880 N.3   244  ILE244     -0.1231
    130  CA        22.2720   26.1570  106.1770 C.3   244  ILE244      0.1692
    131  C         20.7570   25.9550  106.1790 C.2   244  ILE244      0.2592
    132  O         19.9990   26.8900  106.4410 O.2   244  ILE244     -0.2718
    133  CB        22.8710   25.5100  104.9040 C.3   244  ILE244      0.0266
    134  CG1       24.3640   25.8310  104.8120 C.3   244  ILE244      0.0019
    135  CG2       22.1720   26.0390  103.6650 C.3   244  ILE244      0.0020
    136  CD1       24.9620   25.5680  103.4440 C.3   244  ILE244      0.0001
    137  N         20.3230   24.7350  105.8840 N.am  245  TYR245     -0.1976
    138  CA        18.9150   24.3580  105.9830 C.3   245  TYR245      0.1639
    139  C         18.7910   22.8430  105.9170 C.2   245  TYR245      0.2290
    140  O         19.7200   22.1560  105.4910 O.2   245  TYR245     -0.2864
    141  CB        18.0940   25.0030  104.8530 C.3   245  TYR245      0.0560
    142  CG        18.7140   24.9110  103.4710 C.ar  245  TYR245     -0.0198
    143  CD1       18.9750   23.6810  102.8780 C.ar  245  TYR245     -0.0009
    144  CD2       19.0490   26.0590  102.7650 C.ar  245  TYR245     -0.0009
    145  CE1       19.5570   23.6000  101.6210 C.ar  245  TYR245      0.0417
    146  CE2       19.6320   25.9870  101.5090 C.ar  245  TYR245      0.0417
    147  CZ        19.8860   24.7560  100.9440 C.ar  245  TYR245      0.1957
    148  OH        20.4910   24.6870   99.7040 O.3   245  TYR245     -0.2866
    149  N         18.0900   19.3250  104.4270 N.3   247  ALA247     -0.1245
    150  CA        18.2190   18.8500  103.0570 C.3   247  ALA247      0.1562
    151  C         18.4940   17.3530  103.0740 C.2   247  ALA247      0.2260
    152  O         19.6500   16.9240  103.0810 O.2   247  ALA247     -0.2867
    153  CB        19.3580   19.5850  102.3550 C.3   247  ALA247      0.0290
    154  N         21.2600   13.8110  101.0050 N.3   250  GLY250     -0.1225
    155  CA        22.5730   14.2950  100.6180 C.3   250  GLY250      0.1811
    156  C         23.6290   13.2070  100.6420 C.2   250  GLY250      0.2280
    157  O         23.5700   12.2850  101.4610 O.2   250  GLY250     -0.2866
    158  N         26.7900   13.4770  101.4940 N.3   252  ASP252     -0.1239
    159  CA        27.6720   13.5220  102.6510 C.3   252  ASP252      0.1674
    160  C         27.0610   12.7670  103.8290 C.2   252  ASP252      0.2266
    161  O         27.7530   12.0170  104.5140 O.2   252  ASP252     -0.2867
    162  CB        28.0170   14.9760  103.0370 C.3   252  ASP252      0.1410
    163  CG        26.7980   15.8170  103.3950 C.2   252  ASP252      0.3668
    164  OD1       25.6550   15.4320  103.0720 O.co2 252  ASP252     -0.2456
    165  OD2       27.0000   16.8910  104.0080 O.co2 252  ASP252     -0.2456
    166  N         30.8600   18.5810  103.4030 N.3   265  THR265     -0.1218
    167  CA        30.4960   19.3510  102.2220 C.3   265  THR265      0.1862
    168  C         31.1800   20.7080  102.3050 C.2   265  THR265      0.2287
    169  O         31.0710   21.3970  103.3140 O.2   265  THR265     -0.2866
    170  CB        28.9760   19.5780  102.1510 C.3   265  THR265      0.1770
    171  OG1       28.3150   18.3210  101.9950 O.3   265  THR265     -0.2211
    172  CG2       28.6240   20.4870  100.9810 C.3   265  THR265      0.0375
    173  N         31.3520   24.5400  100.8320 N.3   267  GLU267     -0.1245
    174  CA        30.7010   25.5780  100.0400 C.3   267  GLU267      0.1567
    175  C         31.7420   26.6610   99.7710 C.2   267  GLU267      0.2260
    176  O         32.1800   27.3410  100.6920 O.2   267  GLU267     -0.2867
    177  CB        29.5210   26.1790  100.8130 C.3   267  GLU267      0.0388
    178  CG        28.3430   25.2320  100.9980 C.3   267  GLU267      0.1160
    179  CD        27.6310   24.9210   99.6980 C.2   267  GLU267      0.3649
    180  OE1       27.9350   25.5720   98.6770 O.co2 267  GLU267     -0.2457
    181  OE2       26.7660   24.0210   99.7010 O.co2 267  GLU267     -0.2457
    182  N         26.7250   32.0790   92.1390 N.3   276  PHE276     -0.1241
    183  CA        27.1590   30.9980   91.2600 C.3   276  PHE276      0.1605
    184  C         28.0250   31.5080   90.1170 C.2   276  PHE276      0.2264
    185  O         28.7990   30.7480   89.5360 O.2   276  PHE276     -0.2867
    186  CB        25.9500   30.2620   90.6770 C.3   276  PHE276      0.0534
    187  CG        25.0470   29.6660   91.7140 C.ar  276  PHE276     -0.0203
    188  CD1       25.5150   28.6940   92.5870 C.ar  276  PHE276     -0.0042
    189  CD2       23.7290   30.0800   91.8200 C.ar  276  PHE276     -0.0042
    190  CE1       24.6850   28.1480   93.5460 C.ar  276  PHE276     -0.0003
    191  CE2       22.8930   29.5370   92.7780 C.ar  276  PHE276     -0.0003
    192  CZ        23.3690   28.5690   93.6440 C.ar  276  PHE276     -0.0000
@<TRIPOS>BOND
     1    31    32    1
     2    12    11    1
     3    12    15    1
     4    12    13    1
     5    15    16    1
     6    14    13    2
     7    13    22   am
     8    33    32    1
     9    33    34    2
    10    32    35    1
    11    68    67   ar
    12   185   184    2
    13    22    23    1
    14     3     4    2
    15     3     2    1
    16    16    17    1
    17    17    18    1
    18    24    25    2
    19    24    23    1
    20   184   183    1
    21    35    36    1
    22    67    69   ar
    23    67    66    1
    24    20    19    1
    25    23    26    1
    26   186   183    1
    27   186   187    1
    28     2     1    1
    29     2     5    1
    30    18    19    2
    31   183   182    1
    32    19    21    1
    33    36    37    1
    34    66    65    1
    35   187   189   ar
    36   187   188   ar
    37   189   191   ar
    38    26    27    1
    39     5     6    1
    40    62    61    1
    41    62    65    1
    42    62    63    1
    43    37    38    1
    44   188   190   ar
    45    27    28    1
    46   191   192   ar
    47     8     6   ar
    48     8    10   ar
    49    64    63    2
    50     6     7   ar
    51    63    70   am
    52   190   192   ar
    53    28    30   ar
    54    28    29   ar
    55    92    91    1
    56    38    39    2
    57    10     9   ar
    58    70    71    1
    59     7     9   ar
    60    40    39    1
    61    39    41    1
    62    72    71    1
    63    72    73    2
    64    42    43    1
    65    91    88    1
    66    71    74    1
    67    90    89    2
    68   101    99   ar
    69   101   103   ar
    70    99    98   ar
    71    87    88    1
    72    87    79   am
    73    88    89    1
    74    89    93   am
    75    78    79    1
    76    78    77    1
    77    78    81    1
    78    83    85   ar
    79    83    82   ar
    80    79    80    2
    81    85    86   ar
    82    43    46    1
    83    43    44    1
    84   104   103    1
    85    74    76    1
    86    74    75    1
    87   103   102   ar
    88    98    97    1
    89    98   100   ar
    90    50    44   am
    91    50    51    1
    92    93    94    1
    93    97    94    1
    94    46    47    1
    95    86    84   ar
    96    82    81    1
    97    82    84   ar
    98    52    53    2
    99    52    51    1
   100    54    55    1
   101    54    51    1
   102    44    45    2
   103    55    56    1
   104    94    95    1
   105   102   100   ar
   106    47    48    2
   107    47    49   am
   108    59    58    1
   109   180   179   ar
   110    95    96    2
   111    95   105   am
   112    56    57    1
   113    58    57    2
   114    58    60    1
   115   105   106    1
   116   179   181   ar
   117   179   178    1
   118   148   147    1
   119   175   174    1
   120   175   176    2
   121   174   177    1
   122   174   173    1
   123   155   156    1
   124   155   154    1
   125   156   157    2
   126   177   178    1
   127   147   146   ar
   128   147   145   ar
   129   106   109    1
   130   106   107    1
   131   172   170    1
   132   110   109    1
   133   158   159    1
   134   146   144   ar
   135   145   143   ar
   136   107   108    2
   137   171   170    1
   138   170   167    1
   139   167   168    1
   140   167   166    1
   141   168   169    2
   142   153   150    1
   143   159   162    1
   144   159   160    1
   145   144   142   ar
   146   143   142   ar
   147   162   163    1
   148   150   151    1
   149   150   149    1
   150   164   163   ar
   151   151   152    2
   152   163   165   ar
   153   136   134    1
   154   142   141    1
   155   135   133    1
   156   160   161    2
   157   117   116    1
   158   134   133    1
   159   141   138    1
   160   133   130    1
   161   116   115    1
   162   116   118    1
   163   140   139    2
   164   123   124    1
   165   123   120    1
   166   115   112    1
   167   137   138    1
   168   137   131   am
   169   139   138    1
   170   111   112    1
   171   114   113    2
   172   130   131    1
   173   130   129    1
   174   131   132    2
   175   112   113    1
   176   122   121    2
   177   121   120    1
   178   120   119    1
   179   128   127    2
   180   126   127    1
   181   126   125    1
