@<TRIPOS>MOLECULE
tmp/2pj2A00.pdb
 196 184 0 0 0
SMALL
GASTEIGER

@<TRIPOS>ATOM
      1  N         29.5800    7.3480   61.1790 N.3    64  HIS64      -0.1241
      2  CA        29.5680    8.0470   62.4560 C.3    64  HIS64       0.1621
      3  C         28.1700    8.5840   62.7570 C.2    64  HIS64       0.2264
      4  O         27.5570    9.2410   61.9230 O.2    64  HIS64      -0.2867
      5  CB        30.5960    9.1860   62.4380 C.3    64  HIS64       0.0745
      6  CG        32.0220    8.7130   62.4270 C.ar   64  HIS64       0.0817
      7  ND1       32.9790    9.3200   61.6450 N.ar   64  HIS64      -0.2268
      8  CD2       32.5950    7.7120   63.1390 C.ar   64  HIS64       0.1154
      9  CE1       34.1090    8.6840   61.9000 C.ar   64  HIS64       0.1986
     10  NE2       33.9320    7.7040   62.7960 N.ar   64  HIS64      -0.2212
     11  N         26.4500   10.8030   64.6220 N.3    66  ARG66      -0.1231
     12  CA        25.9840   12.1880   64.6630 C.3    66  ARG66       0.1694
     13  C         26.0360   12.8950   63.3140 C.2    66  ARG66       0.2591
     14  O         25.6200   14.0390   63.2100 O.2    66  ARG66      -0.2718
     15  CB        26.8080   12.9990   65.6640 C.3    66  ARG66       0.0321
     16  CG        28.3050   13.0630   65.3280 C.3    66  ARG66       0.0489
     17  CD        29.1230   13.3200   66.5830 C.3    66  ARG66       0.2205
     18  NE        30.5590   13.3630   66.3180 N.pl3  66  ARG66      -0.0865
     19  CZ        31.4740   13.5880   67.2540 C.cat  66  ARG66       0.5346
     20  NH1       31.0960   13.7860   68.5140 N.pl3  66  ARG66       0.1354
     21  NH2       32.7630   13.6280   66.9310 N.pl3  66  ARG66       0.1354
     22  N         26.5430   12.2220   62.2870 N.am   67  GLU67      -0.1979
     23  CA        26.7810   12.8760   61.0030 C.3    67  GLU67       0.1602
     24  C         25.5810   12.7380   60.0830 C.2    67  GLU67       0.2287
     25  O         25.6750   12.1650   59.0030 O.2    67  GLU67      -0.2864
     26  CB        28.0380   12.2950   60.3480 C.3    67  GLU67       0.0415
     27  CG        29.2510   12.4090   61.2570 C.3    67  GLU67       0.1163
     28  CD        30.5600   12.0340   60.5960 C.2    67  GLU67       0.3649
     29  OE1       31.6100   12.2850   61.2280 O.co2  67  GLU67      -0.2457
     30  OE2       30.5590   11.4990   59.4610 O.co2  67  GLU67      -0.2457
     31  N         29.1820    9.3700   68.5000 N.3   122  ARG122     -0.1245
     32  CA        29.9880    9.1630   67.2920 C.3   122  ARG122      0.1563
     33  C         30.1770    7.6820   67.0050 C.2   122  ARG122      0.2260
     34  O         29.9910    7.2150   65.8740 O.2   122  ARG122     -0.2867
     35  CB        31.3570    9.8340   67.4650 C.3   122  ARG122      0.0307
     36  CG        32.4180    9.4240   66.4470 C.3   122  ARG122      0.0489
     37  CD        33.7320   10.1220   66.7640 C.3   122  ARG122      0.2205
     38  NE        34.8500    9.6430   65.9550 N.pl3 122  ARG122     -0.0865
     39  CZ        35.2110   10.1690   64.7890 C.cat 122  ARG122      0.5346
     40  NH1       34.5370   11.1910   64.2820 N.pl3 122  ARG122      0.1354
     41  NH2       36.2670    9.6930   64.1430 N.pl3 122  ARG122      0.1354
     42  N         35.7270    4.0540   62.0550 N.3   139  ASN139     -0.1225
     43  CA        36.6800    4.5120   61.0570 C.3   139  ASN139      0.1785
     44  C         38.0970    4.5580   61.6130 C.2   139  ASN139      0.2597
     45  O         38.9510    5.2670   61.0850 O.2   139  ASN139     -0.2718
     46  CB        36.2980    5.8950   60.5300 C.3   139  ASN139      0.1169
     47  CG        36.7450    6.1010   59.1020 C.2   139  ASN139      0.2627
     48  OD1       36.8520    5.1400   58.3440 O.2   139  ASN139     -0.2716
     49  ND2       37.0170    7.3460   58.7270 N.am  139  ASN139     -0.0877
     50  N         38.3250    3.8180   62.6950 N.am  140  ARG140     -0.1979
     51  CA        39.6750    3.5620   63.1960 C.3   140  ARG140      0.1597
     52  C         39.8080    2.0580   63.3750 C.2   140  ARG140      0.2287
     53  O         40.7940    1.5710   63.9370 O.2   140  ARG140     -0.2864
     54  CB        39.9040    4.2410   64.5530 C.3   140  ARG140      0.0334
     55  CG        39.7220    5.7470   64.5760 C.3   140  ARG140      0.0492
     56  CD        40.8650    6.4980   63.9140 C.3   140  ARG140      0.2205
     57  NE        40.6930    7.9360   64.0740 N.pl3 140  ARG140     -0.0865
     58  CZ        39.8590    8.6680   63.3420 C.cat 140  ARG140      0.5346
     59  NH1       39.1290    8.0960   62.3970 N.pl3 140  ARG140      0.1354
     60  NH2       39.7410    9.9650   63.5640 N.pl3 140  ARG140      0.1354
     61  N         46.4970    8.6550   65.2570 N.3   150  GLY150     -0.1225
     62  CA        45.1600    9.2180   65.2200 C.3   150  GLY150      0.1811
     63  C         44.1160    8.2970   65.8270 C.2   150  GLY150      0.2280
     64  O         42.9170    8.5500   65.7130 O.2   150  GLY150     -0.2866
     65  N         36.8150    8.8710   71.9540 N.3   158  GLU158     -0.1231
     66  CA        35.9670    8.9380   70.7710 C.3   158  GLU158      0.1699
     67  C         36.6360    8.3610   69.5260 C.2   158  GLU158      0.2592
     68  O         35.9610    8.0150   68.5530 O.2   158  GLU158     -0.2718
     69  CB        35.5520   10.3900   70.5260 C.3   158  GLU158      0.0402
     70  CG        34.5920   10.9230   71.5830 C.3   158  GLU158      0.1161
     71  CD        33.2950   10.1240   71.6530 C.2   158  GLU158      0.3649
     72  OE1       32.9250    9.5000   70.6420 O.co2 158  GLU158     -0.2457
     73  OE2       32.6470   10.1160   72.7190 O.co2 158  GLU158     -0.2457
     74  N         37.9610    8.2560   69.5610 N.am  159  THR159     -0.1953
     75  CA        38.7030    7.6440   68.4620 C.3   159  THR159      0.1897
     76  C         39.2100    6.2480   68.8030 C.2   159  THR159      0.2313
     77  O         40.1660    5.7750   68.1840 O.2   159  THR159     -0.2863
     78  CB        39.9200    8.4960   68.0630 C.3   159  THR159      0.1794
     79  OG1       40.7750    8.6650   69.2020 O.3   159  THR159     -0.2208
     80  CG2       39.4740    9.8570   67.5610 C.3   159  THR159      0.0378
     81  N         30.9670   11.2270   54.9860 N.3   192  HIS192     -0.1226
     82  CA        31.0380   11.7980   56.3370 C.3   192  HIS192      0.1752
     83  C         30.6700   13.2790   56.3210 C.2   192  HIS192      0.2597
     84  O         30.4400   13.8610   55.2660 O.2   192  HIS192     -0.2718
     85  CB        32.4590   11.6640   56.9110 C.3   192  HIS192      0.0759
     86  CG        32.8640   10.2580   57.2240 C.ar  192  HIS192      0.0818
     87  ND1       33.1720    9.8710   58.5030 N.ar  192  HIS192     -0.2268
     88  CD2       33.0230    9.2040   56.3840 C.ar  192  HIS192      0.1154
     89  CE1       33.5140    8.6000   58.4210 C.ar  192  HIS192      0.1986
     90  NE2       33.4410    8.1490   57.1570 N.ar  192  HIS192     -0.2212
     91  N         30.6220   13.8820   57.5040 N.am  193  SER193     -0.1938
     92  CA        30.5510   15.3330   57.6460 C.3   193  SER193      0.2055
     93  C         31.2400   15.6780   58.9650 C.2   193  SER193      0.2643
     94  O         31.4090   14.8010   59.8060 O.2   193  SER193     -0.2714
     95  CB        29.0930   15.7970   57.6850 C.3   193  SER193      0.2130
     96  OG        28.5150   15.5380   58.9540 O.3   193  SER193     -0.2179
     97  N         31.6550   16.9280   59.1620 N.am  194  TYR194     -0.1959
     98  CA        31.5600   18.0150   58.1960 C.3   194  TYR194      0.1771
     99  C         32.9960   18.4590   57.8880 C.2   194  TYR194      0.2620
    100  O         33.9360   17.9010   58.4450 O.2   194  TYR194     -0.2715
    101  CB        30.7900   19.1810   58.8140 C.3   194  TYR194      0.0574
    102  CG        31.4020   19.6790   60.1110 C.ar  194  TYR194     -0.0198
    103  CD1       31.1990   18.9960   61.3070 C.ar  194  TYR194     -0.0009
    104  CD2       32.2020   20.8170   60.1350 C.ar  194  TYR194     -0.0009
    105  CE1       31.7780   19.4310   62.4890 C.ar  194  TYR194      0.0417
    106  CE2       32.7850   21.2610   61.3120 C.ar  194  TYR194      0.0417
    107  CZ        32.5680   20.5630   62.4860 C.ar  194  TYR194      0.1957
    108  OH        33.1400   21.0040   63.6610 O.3   194  TYR194     -0.2866
    109  N         33.1490   19.4600   57.0210 N.am  195  SER195     -0.1950
    110  CA        34.4560   20.0480   56.6860 C.3   195  SER195      0.1924
    111  C         34.5380   20.4630   55.2320 C.2   195  SER195      0.2314
    112  O         35.4160   21.2420   54.8530 O.2   195  SER195     -0.2863
    113  CB        35.6090   19.0750   56.9540 C.3   195  SER195      0.2116
    114  OG        36.1220   19.2390   58.2620 O.3   195  SER195     -0.2180
    115  N         38.6500   13.5480   50.5260 N.3   199  LEU199     -0.1245
    116  CA        39.9190   12.9700   50.9520 C.3   199  LEU199      0.1561
    117  C         40.1920   11.6560   50.2310 C.2   199  LEU199      0.2260
    118  O         39.2750   10.8760   49.9720 O.2   199  LEU199     -0.2867
    119  CB        39.9090   12.7190   52.4620 C.3   199  LEU199      0.0270
    120  CG        39.4530   13.8540   53.3810 C.3   199  LEU199      0.0019
    121  CD1       39.4180   13.3460   54.8110 C.3   199  LEU199      0.0001
    122  CD2       40.3870   15.0450   53.2590 C.3   199  LEU199      0.0001
    123  N         45.7600    7.9440   55.0810 N.3   203  SER203     -0.1217
    124  CA        45.4090    8.5500   56.3570 C.3   203  SER203      0.1889
    125  C         46.1850    7.9430   57.5150 C.2   203  SER203      0.2288
    126  O         46.3580    8.5850   58.5490 O.2   203  SER203     -0.2866
    127  CB        43.9090    8.4050   56.6190 C.3   203  SER203      0.2089
    128  OG        43.1690    9.2500   55.7620 O.3   203  SER203     -0.2183
    129  N         44.5050   12.1800   53.0530 N.3   239  GLY239     -0.1225
    130  CA        43.9130   12.3460   54.3670 C.3   239  GLY239      0.1811
    131  C         44.8790   12.9450   55.3690 C.2   239  GLY239      0.2280
    132  O         44.6230   14.0140   55.9270 O.2   239  GLY239     -0.2866
    133  N         43.4950   17.0250   56.3910 N.3   243  ILE243     -0.1231
    134  CA        42.6980   17.2950   57.5740 C.3   243  ILE243      0.1692
    135  C         43.4940   16.9470   58.8290 C.2   243  ILE243      0.2592
    136  O         43.9150   17.8330   59.5720 O.2   243  ILE243     -0.2718
    137  CB        41.3720   16.4940   57.5160 C.3   243  ILE243      0.0266
    138  CG1       40.5960   16.6620   58.8140 C.3   243  ILE243      0.0019
    139  CG2       41.6550   15.0370   57.2210 C.3   243  ILE243      0.0020
    140  CD1       39.2480   16.0000   58.7760 C.3   243  ILE243      0.0001
    141  N         43.7060   15.6550   59.0460 N.am  244  TYR244     -0.1976
    142  CA        44.5960   15.1740   60.0910 C.3   244  TYR244      0.1639
    143  C         44.7860   13.6730   59.9350 C.2   244  TYR244      0.2290
    144  O         43.9280   12.9820   59.3810 O.2   244  TYR244     -0.2864
    145  CB        44.0320   15.4920   61.4880 C.3   244  TYR244      0.0560
    146  CG        42.6260   14.9850   61.7580 C.ar  244  TYR244     -0.0198
    147  CD1       42.3790   13.6410   62.0080 C.ar  244  TYR244     -0.0009
    148  CD2       41.5480   15.8590   61.7820 C.ar  244  TYR244     -0.0009
    149  CE1       41.0890   13.1810   62.2770 C.ar  244  TYR244      0.0417
    150  CE2       40.2580   15.4120   62.0450 C.ar  244  TYR244      0.0417
    151  CZ        40.0330   14.0740   62.2920 C.ar  244  TYR244      0.1957
    152  OH        38.7460   13.6370   62.5490 O.3   244  TYR244     -0.2866
    153  N         44.8160    9.7710   60.7180 N.3   246  ALA246     -0.1245
    154  CA        43.8550    8.9090   61.3980 C.3   246  ALA246      0.1562
    155  C         43.9270    7.5190   60.7840 C.2   246  ALA246      0.2260
    156  O         43.4310    7.2910   59.6770 O.2   246  ALA246     -0.2867
    157  CB        42.4470    9.4790   61.2530 C.3   246  ALA246      0.0290
    158  N         41.2970    3.7150   58.8020 N.3   249  GLY249     -0.1225
    159  CA        40.1770    4.2230   58.0310 C.3   249  GLY249      0.1811
    160  C         39.7280    3.2580   56.9520 C.2   249  GLY249      0.2280
    161  O         40.5440    2.5410   56.3770 O.2   249  GLY249     -0.2866
    162  N         38.6030    3.8830   53.9660 N.3   251  ASP251     -0.1239
    163  CA        39.0560    4.2340   52.6280 C.3   251  ASP251      0.1674
    164  C         40.4980    3.7860   52.3850 C.2   251  ASP251      0.2266
    165  O         40.8160    3.2520   51.3190 O.2   251  ASP251     -0.2867
    166  CB        38.9060    5.7440   52.3790 C.3   251  ASP251      0.1410
    167  CG        39.6810    6.5950   53.3730 C.2   251  ASP251      0.3668
    168  OD1       40.1660    6.0510   54.3850 O.co2 251  ASP251     -0.2456
    169  OD2       39.7980    7.8200   53.1350 O.co2 251  ASP251     -0.2456
    170  N         36.9930    9.6600   50.7290 N.3   264  THR264     -0.1218
    171  CA        36.1160   10.0520   51.8140 C.3   264  THR264      0.1862
    172  C         35.6000   11.4510   51.5540 C.2   264  THR264      0.2287
    173  O         36.3810   12.3850   51.3590 O.2   264  THR264     -0.2866
    174  CB        36.8510   10.0290   53.1630 C.3   264  THR264      0.1770
    175  OG1       37.2290    8.6830   53.4750 O.3   264  THR264     -0.2211
    176  CG2       35.9500   10.5870   54.2700 C.3   264  THR264      0.0375
    177  N         33.6880   14.7200   53.0100 N.3   266  GLU266     -0.1245
    178  CA        33.2150   15.4780   54.1630 C.3   266  GLU266      0.1567
    179  C         32.2590   16.5350   53.6460 C.2   266  GLU266      0.2260
    180  O         32.6630   17.4330   52.9170 O.2   266  GLU266     -0.2867
    181  CB        34.3900   16.1470   54.8810 C.3   266  GLU266      0.0388
    182  CG        35.4750   15.1810   55.3320 C.3   266  GLU266      0.1160
    183  CD        35.0430   14.3260   56.5070 C.2   266  GLU266      0.3649
    184  OE1       34.1610   14.7610   57.2740 O.co2 266  GLU266     -0.2457
    185  OE2       35.5870   13.2180   56.6640 O.co2 266  GLU266     -0.2457
    186  N         27.8190   19.2530   62.9480 N.3   275  PHE275     -0.1241
    187  CA        27.0520   18.0190   62.7790 C.3   275  PHE275      0.1605
    188  C         25.5590   18.2940   62.7810 C.2   275  PHE275      0.2264
    189  O         24.7710   17.4700   62.3240 O.2   275  PHE275     -0.2867
    190  CB        27.3670   17.0260   63.9020 C.3   275  PHE275      0.0534
    191  CG        28.8290   16.7060   64.0390 C.ar  275  PHE275     -0.0203
    192  CD1       29.5180   16.0990   63.0040 C.ar  275  PHE275     -0.0042
    193  CD2       29.5170   17.0310   65.1980 C.ar  275  PHE275     -0.0042
    194  CE1       30.8710   15.8230   63.1120 C.ar  275  PHE275     -0.0003
    195  CE2       30.8710   16.7600   65.3170 C.ar  275  PHE275     -0.0003
    196  CZ        31.5500   16.1550   64.2710 C.ar  275  PHE275     -0.0000
@<TRIPOS>BOND
     1   118   117    2
     2   117   116    1
     3   115   116    1
     4   170   171    1
     5   116   119    1
     6   165   164    2
     7   173   172    2
     8   172   171    1
     9   171   174    1
    10   166   163    1
    11   166   167    1
    12   164   163    1
    13   119   120    1
    14   163   162    1
    15   180   179    2
    16   177   178    1
    17   129   130    1
    18   169   167   ar
    19   174   175    1
    20   174   176    1
    21   122   120    1
    22   167   168   ar
    23   120   121    1
    24   179   178    1
    25   178   181    1
    26   130   131    1
    27   112   111    2
    28   181   182    1
    29    81    82    1
    30   123   124    1
    31   111   110    1
    32    84    83    2
    33   182   183    1
    34   131   132    2
    35   128   127    1
    36    83    82    1
    37    83    91   am
    38    82    85    1
    39   124   127    1
    40   124   125    1
    41   161   160    2
    42    88    90   ar
    43    88    86   ar
    44   133   134    1
    45   183   185   ar
    46   183   184   ar
    47   110   113    1
    48   110   109    1
    49    85    86    1
    50   160   159    1
    51   113   114    1
    52   109    99   am
    53    90    89   ar
    54   139   137    1
    55    86    87   ar
    56    91    92    1
    57   125   126    2
    58   137   134    1
    59   137   138    1
    60   134   135    1
    61    92    95    1
    62    92    93    1
    63    95    96    1
    64    99    98    1
    65    99   100    2
    66   159   158    1
    67    98   101    1
    68    98    97    1
    69    48    47    2
    70    89    87   ar
    71    49    47   am
    72   140   138    1
    73   101   102    1
    74   135   141   am
    75   135   136    2
    76    93    97   am
    77    93    94    2
    78    25    24    2
    79   141   142    1
    80    47    46    1
    81   144   143    2
    82    30    28   ar
    83   156   155    2
    84   143   142    1
    85    24    23    1
    86   142   145    1
    87   102   104   ar
    88   102   103   ar
    89   104   106   ar
    90    26    23    1
    91    26    27    1
    92    46    43    1
    93    28    29   ar
    94    28    27    1
    95   153   154    1
    96   155   154    1
    97    23    22    1
    98    43    44    1
    99    43    42    1
   100    45    44    2
   101     1     2    1
   102   157   154    1
   103   103   105   ar
   104   106   107   ar
   105   145   146    1
   106    44    50   am
   107     7     9   ar
   108     7     6   ar
   109   146   148   ar
   110   146   147   ar
   111   148   150   ar
   112     9    10   ar
   113     4     3    2
   114   147   149   ar
   115   150   151   ar
   116   149   151   ar
   117    22    13   am
   118   151   152    1
   119   189   188    2
   120    59    58    1
   121     6     5    1
   122     6     8   ar
   123     5     2    1
   124     2     3    1
   125   107   105   ar
   126   107   108    1
   127    50    51    1
   128   187   188    1
   129   187   186    1
   130   187   190    1
   131    10     8   ar
   132   192   194   ar
   133   192   191   ar
   134   194   196   ar
   135    51    52    1
   136    51    54    1
   137    14    13    2
   138    13    12    1
   139    58    60    1
   140    58    57    2
   141    52    53    2
   142   190   191    1
   143    56    57    1
   144    56    55    1
   145   191   193   ar
   146    41    39    1
   147   196   195   ar
   148    40    39    1
   149    54    55    1
   150    11    12    1
   151    12    15    1
   152    39    38    2
   153   193   195   ar
   154    62    61    1
   155    62    63    1
   156    16    15    1
   157    16    17    1
   158    64    63    2
   159    34    33    2
   160    38    37    1
   161    18    17    1
   162    18    19    2
   163    36    37    1
   164    36    35    1
   165    21    19    1
   166    33    32    1
   167    19    20    1
   168    32    35    1
   169    32    31    1
   170    80    78    1
   171    78    75    1
   172    78    79    1
   173    77    76    2
   174    75    76    1
   175    75    74    1
   176    68    67    2
   177    67    74   am
   178    67    66    1
   179    69    66    1
   180    69    70    1
   181    72    71   ar
   182    66    65    1
   183    70    71    1
   184    71    73   ar
