@<TRIPOS>MOLECULE
tmp/2pj3A00.pdb
 200 189 0 0 0
SMALL
GASTEIGER

@<TRIPOS>ATOM
      1  N         29.7020    7.4270   60.8520 N.3    64  HIS64      -0.1241
      2  CA        29.7150    8.1480   62.1180 C.3    64  HIS64       0.1621
      3  C         28.3300    8.6840   62.4750 C.2    64  HIS64       0.2264
      4  O         27.6970    9.3770   61.6850 O.2    64  HIS64      -0.2867
      5  CB        30.7400    9.2860   62.0510 C.3    64  HIS64       0.0745
      6  CG        32.1620    8.8120   62.0820 C.ar   64  HIS64       0.0817
      7  ND1       33.1030    9.2950   61.2090 N.ar   64  HIS64      -0.2268
      8  CD2       32.7370    7.8950   62.8980 C.ar   64  HIS64       0.1154
      9  CE1       34.2260    8.6680   61.5100 C.ar   64  HIS64       0.1986
     10  NE2       34.0560    7.8110   62.5260 N.ar   64  HIS64      -0.2212
     11  N         26.6960   10.8990   64.2860 N.3    66  ARG66      -0.1231
     12  CA        26.2250   12.2800   64.3480 C.3    66  ARG66       0.1694
     13  C         26.2420   12.9980   63.0050 C.2    66  ARG66       0.2591
     14  O         25.7200   14.1110   62.8780 O.2    66  ARG66      -0.2718
     15  CB        27.0650   13.0700   65.3540 C.3    66  ARG66       0.0321
     16  CG        28.5480   13.0930   65.0360 C.3    66  ARG66       0.0489
     17  CD        29.3340   13.6670   66.2040 C.3    66  ARG66       0.2205
     18  NE        30.7710   13.6730   65.9580 N.pl3  66  ARG66      -0.0865
     19  CZ        31.6850   13.8040   66.9110 C.cat  66  ARG66       0.5346
     20  NH1       31.3080   13.9350   68.1760 N.pl3  66  ARG66       0.1354
     21  NH2       32.9730   13.8140   66.6030 N.pl3  66  ARG66       0.1354
     22  N         26.8410   12.3650   62.0030 N.am   67  GLU67      -0.1979
     23  CA        26.9860   13.0000   60.6970 C.3    67  GLU67       0.1602
     24  C         25.7500   12.7520   59.8410 C.2    67  GLU67       0.2287
     25  O         25.8040   12.0500   58.8370 O.2    67  GLU67      -0.2864
     26  CB        28.2570   12.4800   60.0180 C.3    67  GLU67       0.0415
     27  CG        29.5180   12.8690   60.8030 C.3    67  GLU67       0.1163
     28  CD        30.7740   12.1430   60.3620 C.2    67  GLU67       0.3649
     29  OE1       31.7290   12.1050   61.1710 O.co2  67  GLU67      -0.2457
     30  OE2       30.8150   11.6240   59.2230 O.co2  67  GLU67      -0.2457
     31  N         29.3990    9.4690   68.2120 N.3   122  ARG122     -0.1245
     32  CA        30.2140    9.2450   67.0140 C.3   122  ARG122      0.1563
     33  C         30.4330    7.7590   66.7490 C.2   122  ARG122      0.2260
     34  O         30.3270    7.2920   65.6100 O.2   122  ARG122     -0.2867
     35  CB        31.5750    9.9350   67.1810 C.3   122  ARG122      0.0307
     36  CG        32.6660    9.4760   66.2130 C.3   122  ARG122      0.0489
     37  CD        33.9900   10.1730   66.5330 C.3   122  ARG122      0.2205
     38  NE        35.0950    9.7240   65.6860 N.pl3 122  ARG122     -0.0865
     39  CZ        35.3520   10.2000   64.4720 C.cat 122  ARG122      0.5346
     40  NH1       34.5780   11.1430   63.9480 N.pl3 122  ARG122      0.1354
     41  NH2       36.3960    9.7480   63.7880 N.pl3 122  ARG122      0.1354
     42  N         35.8620    4.1330   61.8880 N.3   139  ASN139     -0.1225
     43  CA        36.8720    4.5510   60.9250 C.3   139  ASN139      0.1785
     44  C         38.2660    4.6060   61.5310 C.2   139  ASN139      0.2597
     45  O         39.1590    5.2720   61.0020 O.2   139  ASN139     -0.2718
     46  CB        36.5270    5.9050   60.3070 C.3   139  ASN139      0.1169
     47  CG        36.9480    5.9840   58.8580 C.2   139  ASN139      0.2627
     48  OD1       36.9650    4.9700   58.1690 O.2   139  ASN139     -0.2716
     49  ND2       37.2980    7.1780   58.3920 N.am  139  ASN139     -0.0877
     50  N         38.4400    3.9100   62.6490 N.am  140  ARG140     -0.1979
     51  CA        39.7700    3.6010   63.1660 C.3   140  ARG140      0.1597
     52  C         39.9480    2.0880   63.2840 C.2   140  ARG140      0.2287
     53  O         40.9300    1.6180   63.8490 O.2   140  ARG140     -0.2864
     54  CB        39.9730    4.2440   64.5430 C.3   140  ARG140      0.0334
     55  CG        39.8490    5.7590   64.5510 C.3   140  ARG140      0.0492
     56  CD        40.9830    6.4290   63.7990 C.3   140  ARG140      0.2205
     57  NE        40.8630    7.8810   63.8690 N.pl3 140  ARG140     -0.0865
     58  CZ        40.0690    8.6050   63.0870 C.cat 140  ARG140      0.5346
     59  NH1       39.3220    8.0140   62.1630 N.pl3 140  ARG140      0.1354
     60  NH2       40.0130    9.9240   63.2420 N.pl3 140  ARG140      0.1354
     61  N         46.8610    8.8480   65.1840 N.3   150  GLY150     -0.1225
     62  CA        45.5720    9.5140   65.1290 C.3   150  GLY150      0.1811
     63  C         44.4420    8.6850   65.7110 C.2   150  GLY150      0.2280
     64  O         43.2680    8.9330   65.4300 O.2   150  GLY150     -0.2866
     65  N         36.9440    9.0110   71.8450 N.3   158  GLU158     -0.1231
     66  CA        36.1120    9.1040   70.6520 C.3   158  GLU158      0.1699
     67  C         36.7340    8.4510   69.4270 C.2   158  GLU158      0.2592
     68  O         36.0260    8.0960   68.4850 O.2   158  GLU158     -0.2718
     69  CB        35.8140   10.5710   70.3520 C.3   158  GLU158      0.0402
     70  CG        34.7920   11.1700   71.2870 C.3   158  GLU158      0.1161
     71  CD        33.3980   10.6710   70.9840 C.2   158  GLU158      0.3649
     72  OE1       32.9840    9.6510   71.5780 O.co2 158  GLU158     -0.2457
     73  OE2       32.7210   11.3000   70.1430 O.co2 158  GLU158     -0.2457
     74  N         38.0530    8.2990   69.4380 N.am  159  THR159     -0.1953
     75  CA        38.7530    7.6710   68.3240 C.3   159  THR159      0.1897
     76  C         39.3140    6.3020   68.6980 C.2   159  THR159      0.2313
     77  O         40.2990    5.8420   68.1160 O.2   159  THR159     -0.2863
     78  CB        39.9020    8.5640   67.8100 C.3   159  THR159      0.1794
     79  OG1       40.7930    8.8770   68.8900 O.3   159  THR159     -0.2208
     80  CG2       39.3440    9.8520   67.2270 C.3   159  THR159      0.0378
     81  N         31.0240   11.2460   54.6680 N.3   192  HIS192     -0.1226
     82  CA        31.1360   11.7990   56.0150 C.3   192  HIS192      0.1752
     83  C         30.7370   13.2800   56.0070 C.2   192  HIS192      0.2597
     84  O         30.4900   13.8580   54.9540 O.2   192  HIS192     -0.2718
     85  CB        32.5790   11.6910   56.5040 C.3   192  HIS192      0.0759
     86  CG        33.0120   10.2960   56.8290 C.ar  192  HIS192      0.0818
     87  ND1       33.1740    9.8880   58.1260 N.ar  192  HIS192     -0.2268
     88  CD2       33.3290    9.2770   55.9950 C.ar  192  HIS192      0.1154
     89  CE1       33.5870    8.6370   58.0620 C.ar  192  HIS192      0.1986
     90  NE2       33.6970    8.2200   56.7920 N.ar  192  HIS192     -0.2212
     91  N         30.6800   13.8830   57.1910 N.am  193  SER193     -0.1938
     92  CA        30.6390   15.3430   57.3240 C.3   193  SER193      0.2055
     93  C         31.3690   15.6850   58.6220 C.2   193  SER193      0.2643
     94  O         31.5440   14.8060   59.4600 O.2   193  SER193     -0.2714
     95  CB        29.1860   15.8320   57.3820 C.3   193  SER193      0.2130
     96  OG        28.5880   15.5510   58.6380 O.3   193  SER193     -0.2179
     97  N         31.8130   16.9300   58.8060 N.am  194  TYR194     -0.1959
     98  CA        31.7040   18.0170   57.8350 C.3   194  TYR194      0.1771
     99  C         33.1140   18.5220   57.5090 C.2   194  TYR194      0.2620
    100  O         34.0670   18.1680   58.1960 O.2   194  TYR194     -0.2715
    101  CB        30.8940   19.1650   58.4450 C.3   194  TYR194      0.0574
    102  CG        31.4950   19.6870   59.7350 C.ar  194  TYR194     -0.0198
    103  CD1       31.2270   19.0650   60.9470 C.ar  194  TYR194     -0.0009
    104  CD2       32.3570   20.7780   59.7330 C.ar  194  TYR194     -0.0009
    105  CE1       31.8040   19.5090   62.1210 C.ar  194  TYR194      0.0417
    106  CE2       32.9390   21.2300   60.9030 C.ar  194  TYR194      0.0417
    107  CZ        32.6600   20.5910   62.0920 C.ar  194  TYR194      0.1957
    108  OH        33.2430   21.0320   63.2600 O.3   194  TYR194     -0.2866
    109  N         33.2290   19.3510   56.4710 N.am  195  SER195     -0.1950
    110  CA        34.4600   20.0980   56.1630 C.3   195  SER195      0.1924
    111  C         34.5230   20.5350   54.7020 C.2   195  SER195      0.2314
    112  O         35.3980   21.3140   54.3170 O.2   195  SER195     -0.2863
    113  CB        35.7130   19.2720   56.4730 C.3   195  SER195      0.2116
    114  OG        36.1630   19.5090   57.7960 O.3   195  SER195     -0.2180
    115  N         38.8370   13.7570   50.1460 N.3   199  LEU199     -0.1245
    116  CA        40.1460   13.2100   50.4940 C.3   199  LEU199      0.1561
    117  C         40.4050   11.8910   49.7770 C.2   199  LEU199      0.2260
    118  O         39.4830   11.1120   49.5380 O.2   199  LEU199     -0.2867
    119  CB        40.2540   12.9830   52.0080 C.3   199  LEU199      0.0270
    120  CG        40.0760   14.1750   52.9550 C.3   199  LEU199      0.0019
    121  CD1       40.8580   15.3740   52.4300 C.3   199  LEU199      0.0001
    122  CD2       38.5970   14.5110   53.0860 C.3   199  LEU199      0.0001
    123  N         45.9080    8.4630   54.7760 N.3   203  SER203     -0.1217
    124  CA        45.8030    9.1410   56.0570 C.3   203  SER203      0.1889
    125  C         46.6750    8.4880   57.1220 C.2   203  SER203      0.2288
    126  O         47.1210    9.1620   58.0510 O.2   203  SER203     -0.2866
    127  CB        44.3510    9.1560   56.5350 C.3   203  SER203      0.2089
    128  OG        43.5700   10.0680   55.7800 O.3   203  SER203     -0.2183
    129  N         43.6570   16.9650   56.1430 N.3   243  ILE243     -0.1231
    130  CA        42.8470   17.0830   57.3500 C.3   243  ILE243      0.1692
    131  C         43.6450   16.7140   58.6010 C.2   243  ILE243      0.2592
    132  O         43.8500   17.5510   59.4830 O.2   243  ILE243     -0.2718
    133  CB        41.5700   16.2050   57.2490 C.3   243  ILE243      0.0266
    134  CG1       40.7320   16.3590   58.5160 C.3   243  ILE243      0.0019
    135  CG2       41.9380   14.7540   57.0280 C.3   243  ILE243      0.0020
    136  CD1       40.2920   17.7770   58.7820 C.3   243  ILE243      0.0001
    137  N         44.0970   15.4660   58.6730 N.am  244  TYR244     -0.1976
    138  CA        45.0160   15.0320   59.7180 C.3   244  TYR244      0.1639
    139  C         45.4420   13.5880   59.5130 C.2   244  TYR244      0.2290
    140  O         44.7300   12.8000   58.8900 O.2   244  TYR244     -0.2864
    141  CB        44.3850   15.1910   61.1130 C.3   244  TYR244      0.0560
    142  CG        42.9240   14.7890   61.2240 C.ar  244  TYR244     -0.0198
    143  CD1       42.5110   13.4850   60.9740 C.ar  244  TYR244     -0.0009
    144  CD2       41.9620   15.7170   61.6030 C.ar  244  TYR244     -0.0009
    145  CE1       41.1770   13.1190   61.0990 C.ar  244  TYR244      0.0417
    146  CE2       40.6310   15.3630   61.7320 C.ar  244  TYR244      0.0417
    147  CZ        40.2410   14.0670   61.4790 C.ar  244  TYR244      0.1957
    148  OH        38.9130   13.7270   61.5980 O.3   244  TYR244     -0.2866
    149  N         45.6580    9.8490   60.4200 N.3   246  ALA246     -0.1245
    150  CA        44.7860    8.9680   61.1850 C.3   246  ALA246      0.1562
    151  C         44.8010    7.5740   60.5760 C.2   246  ALA246      0.2260
    152  O         44.6260    7.4080   59.3670 O.2   246  ALA246     -0.2867
    153  CB        43.3650    9.5230   61.2020 C.3   246  ALA246      0.0290
    154  N         41.4330    3.7870   58.7000 N.3   249  GLY249     -0.1225
    155  CA        40.2760    4.2440   57.9480 C.3   249  GLY249      0.1811
    156  C         39.9490    3.3410   56.7740 C.2   249  GLY249      0.2280
    157  O         40.8250    2.6650   56.2370 O.2   249  GLY249     -0.2866
    158  N         38.8940    4.1140   53.7470 N.3   251  ASP251     -0.1225
    159  CA        39.3410    4.5660   52.4380 C.3   251  ASP251      0.1805
    160  C         40.7500    4.0580   52.1400 C.2   251  ASP251      0.2597
    161  O         41.0100    3.5400   51.0520 O.2   251  ASP251     -0.2718
    162  CB        39.2730    6.0990   52.3280 C.3   251  ASP251      0.1424
    163  CG        40.0120    6.8180   53.4480 C.2   251  ASP251      0.3668
    164  OD1       40.5680    6.1510   54.3430 O.co2 251  ASP251     -0.2456
    165  OD2       40.0290    8.0680   53.4260 O.co2 251  ASP251     -0.2456
    166  N         41.6480    4.1800   53.1130 N.am  252  ASP252     -0.1974
    167  CA        43.0060    3.6640   52.9580 C.3   252  ASP252      0.1709
    168  C         43.0020    2.1480   52.7970 C.2   252  ASP252      0.2293
    169  O         43.7250    1.6020   51.9600 O.2   252  ASP252     -0.2864
    170  CB        43.8660    4.0310   54.1670 C.3   252  ASP252      0.1436
    171  CG        44.2230    5.5020   54.2140 C.2   252  ASP252      0.3671
    172  OD1       43.9690    6.2240   53.2250 O.co2 252  ASP252     -0.2456
    173  OD2       44.7660    5.9340   55.2550 O.co2 252  ASP252     -0.2456
    174  N         37.1720    9.7160   50.5720 N.3   264  THR264     -0.1218
    175  CA        36.3100   10.1370   51.6660 C.3   264  THR264      0.1862
    176  C         35.7370   11.5090   51.3240 C.2   264  THR264      0.2287
    177  O         36.4860   12.4550   51.0630 O.2   264  THR264     -0.2866
    178  CB        37.1010   10.2310   52.9860 C.3   264  THR264      0.1770
    179  OG1       37.5570    8.9270   53.3640 O.3   264  THR264     -0.2211
    180  CG2       36.2280   10.8050   54.0910 C.3   264  THR264      0.0375
    181  N         33.6790   14.7770   52.6290 N.3   266  GLU266     -0.1245
    182  CA        33.2160   15.5320   53.7870 C.3   266  GLU266      0.1567
    183  C         32.2560   16.5930   53.2780 C.2   266  GLU266      0.2260
    184  O         32.6760   17.5260   52.6000 O.2   266  GLU266     -0.2867
    185  CB        34.4020   16.2080   54.4850 C.3   266  GLU266      0.0388
    186  CG        35.3160   15.2490   55.2310 C.3   266  GLU266      0.1160
    187  CD        34.6310   14.6000   56.4200 C.2   266  GLU266      0.3649
    188  OE1       33.5450   15.0760   56.8140 O.co2 266  GLU266     -0.2457
    189  OE2       35.1790   13.6160   56.9620 O.co2 266  GLU266     -0.2457
    190  N         28.0480   19.3650   62.5930 N.3   275  PHE275     -0.1241
    191  CA        27.3010   18.1200   62.4430 C.3   275  PHE275      0.1605
    192  C         25.7990   18.3640   62.4440 C.2   275  PHE275      0.2264
    193  O         25.0240   17.5480   61.9390 O.2   275  PHE275     -0.2867
    194  CB        27.6560   17.1530   63.5730 C.3   275  PHE275      0.0534
    195  CG        29.1170   16.8130   63.6400 C.ar  275  PHE275     -0.0203
    196  CD1       29.7330   16.1490   62.5940 C.ar  275  PHE275     -0.0042
    197  CD2       29.8700   17.1440   64.7560 C.ar  275  PHE275     -0.0042
    198  CE1       31.0750   15.8200   62.6590 C.ar  275  PHE275     -0.0003
    199  CE2       31.2110   16.8170   64.8250 C.ar  275  PHE275     -0.0003
    200  CZ        31.8140   16.1530   63.7750 C.ar  275  PHE275     -0.0000
@<TRIPOS>BOND
     1   118   117    2
     2   117   116    1
     3   115   116    1
     4   116   119    1
     5   174   175    1
     6   161   160    2
     7   177   176    2
     8   176   175    1
     9   175   178    1
    10   169   168    2
    11   119   120    1
    12   160   159    1
    13   160   166   am
    14   162   159    1
    15   162   163    1
    16   121   120    1
    17   159   158    1
    18   184   183    2
    19   181   182    1
    20   168   167    1
    21   120   122    1
    22   167   166    1
    23   167   170    1
    24   178   179    1
    25   178   180    1
    26   172   171   ar
    27   183   182    1
    28   165   163   ar
    29   163   164   ar
    30   182   185    1
    31   170   171    1
    32   171   173   ar
    33   112   111    2
    34   185   186    1
    35    81    82    1
    36   111   110    1
    37   123   124    1
    38    84    83    2
    39   186   187    1
    40   128   127    1
    41    88    90   ar
    42    88    86   ar
    43    83    82    1
    44    83    91   am
    45    82    85    1
    46   124   127    1
    47   124   125    1
    48   129   130    1
    49   110   109    1
    50   110   113    1
    51   157   156    2
    52   187   188   ar
    53   187   189   ar
    54   109    99   am
    55   113   114    1
    56    85    86    1
    57   156   155    1
    58    90    89   ar
    59    86    87   ar
    60   135   133    1
    61   125   126    2
    62    91    92    1
    63   133   130    1
    64   133   134    1
    65    92    95    1
    66    92    93    1
    67   130   131    1
    68    95    96    1
    69    99    98    1
    70    99   100    2
    71    98   101    1
    72    98    97    1
    73   155   154    1
    74    89    87   ar
    75    48    47    2
    76    49    47   am
    77   101   102    1
    78   134   136    1
    79   131   137   am
    80   131   132    2
    81    93    97   am
    82    93    94    2
    83   137   138    1
    84    25    24    2
    85    47    46    1
    86   140   139    2
    87    30    28   ar
    88   152   151    2
    89   139   138    1
    90   138   141    1
    91   104   102   ar
    92   104   106   ar
    93   102   103   ar
    94    24    23    1
    95    26    23    1
    96    26    27    1
    97    46    43    1
    98    28    27    1
    99    28    29   ar
   100   149   150    1
   101   151   150    1
   102    23    22    1
   103     1     2    1
   104   106   107   ar
   105    43    44    1
   106    43    42    1
   107   103   105   ar
   108   143   145   ar
   109   143   142   ar
   110    45    44    2
   111   145   147   ar
   112   141   142    1
   113   150   153    1
   114     7     9   ar
   115     7     6   ar
   116   142   144   ar
   117   147   148    1
   118   147   146   ar
   119     9    10   ar
   120    44    50   am
   121   144   146   ar
   122     4     3    2
   123   193   192    2
   124    22    13   am
   125     5     6    1
   126     5     2    1
   127     6     8   ar
   128   107   105   ar
   129   107   108    1
   130     2     3    1
   131    59    58    1
   132   191   192    1
   133   191   190    1
   134   191   194    1
   135    10     8   ar
   136   196   198   ar
   137   196   195   ar
   138    50    51    1
   139   198   200   ar
   140    14    13    2
   141    13    12    1
   142    58    60    1
   143    58    57    2
   144    51    52    1
   145    51    54    1
   146    52    53    2
   147   194   195    1
   148   195   197   ar
   149   200   199   ar
   150    41    39    1
   151    56    57    1
   152    56    55    1
   153    40    39    1
   154    11    12    1
   155    12    15    1
   156    39    38    2
   157    54    55    1
   158   197   199   ar
   159    16    15    1
   160    16    17    1
   161    62    61    1
   162    62    63    1
   163    64    63    2
   164    34    33    2
   165    38    37    1
   166    18    17    1
   167    18    19    2
   168    36    37    1
   169    36    35    1
   170    21    19    1
   171    33    32    1
   172    19    20    1
   173    32    35    1
   174    32    31    1
   175    80    78    1
   176    78    75    1
   177    78    79    1
   178    77    76    2
   179    75    76    1
   180    75    74    1
   181    68    67    2
   182    67    74   am
   183    67    66    1
   184    73    71   ar
   185    69    66    1
   186    69    70    1
   187    66    65    1
   188    71    70    1
   189    71    72   ar
