@<TRIPOS>MOLECULE
tmp/2pj4A00.pdb
 200 189 0 0 0
SMALL
GASTEIGER

@<TRIPOS>ATOM
      1  N         15.6710   18.4240   60.1640 N.3    64  HIS64      -0.1241
      2  CA        16.1330   19.7860   60.3650 C.3    64  HIS64       0.1621
      3  C         15.9730   20.2270   61.8180 C.2    64  HIS64       0.2264
      4  O         14.8890   20.1510   62.4000 O.2    64  HIS64      -0.2867
      5  CB        15.3950   20.7220   59.4200 C.3    64  HIS64       0.0745
      6  CG        15.8250   20.5970   57.9880 C.ar   64  HIS64       0.0817
      7  ND1       14.9220   20.6810   56.9610 N.ar   64  HIS64      -0.2268
      8  CD2       17.0750   20.4490   57.4770 C.ar   64  HIS64       0.1154
      9  CE1       15.6280   20.5850   55.8490 C.ar   64  HIS64       0.1986
     10  NE2       16.9420   20.4450   56.1070 N.ar   64  HIS64      -0.2212
     11  N         15.8450   22.7840   63.8080 N.3    66  ARG66      -0.1231
     12  CA        14.9910   23.7980   64.4060 C.3    66  ARG66       0.1694
     13  C         13.5020   23.4660   64.3620 C.2    66  ARG66       0.2591
     14  O         12.7000   24.1220   65.0320 O.2    66  ARG66      -0.2718
     15  CB        15.2260   25.1460   63.7300 C.3    66  ARG66       0.0321
     16  CG        14.8500   25.1870   62.2560 C.3    66  ARG66       0.0489
     17  CD        15.3390   26.4740   61.6230 C.3    66  ARG66       0.2205
     18  NE        15.2520   26.4580   60.1650 N.pl3  66  ARG66      -0.0865
     19  CZ        15.8100   27.3740   59.3790 C.cat  66  ARG66       0.5346
     20  NH1       16.4950   28.3780   59.9140 N.pl3  66  ARG66       0.1354
     21  NH2       15.6850   27.2870   58.0610 N.pl3  66  ARG66       0.1354
     22  N         13.1280   22.4470   63.5910 N.am   67  GLU67      -0.1979
     23  CA        11.7080   22.1390   63.3720 C.3    67  GLU67       0.1602
     24  C         11.1650   21.1880   64.4450 C.2    67  GLU67       0.2287
     25  O         10.8920   20.0100   64.1750 O.2    67  GLU67      -0.2864
     26  CB        11.5190   21.5310   61.9660 C.3    67  GLU67       0.0415
     27  CG        11.9760   22.4630   60.8300 C.3    67  GLU67       0.1163
     28  CD        12.2320   21.7450   59.5070 C.2    67  GLU67       0.3649
     29  OE1       12.7280   22.3950   58.5580 O.co2  67  GLU67      -0.2457
     30  OE2       11.9370   20.5360   59.4100 O.co2  67  GLU67      -0.2457
     31  N         19.6210   24.8060   61.4310 N.3   122  ARG122     -0.1245
     32  CA        18.9680   23.9160   60.4640 C.3   122  ARG122      0.1563
     33  C         19.8150   22.6920   60.0890 C.2   122  ARG122      0.2260
     34  O         19.3280   21.5530   60.0960 O.2   122  ARG122     -0.2867
     35  CB        18.6380   24.7110   59.1910 C.3   122  ARG122      0.0307
     36  CG        18.3140   23.8810   57.9370 C.3   122  ARG122      0.0489
     37  CD        18.1640   24.8140   56.7320 C.3   122  ARG122      0.2205
     38  NE        17.8810   24.1410   55.4650 N.pl3 122  ARG122     -0.0865
     39  CZ        16.6670   23.7630   55.0770 C.cat 122  ARG122      0.5346
     40  NH1       15.6240   23.9850   55.8680 N.pl3 122  ARG122      0.1354
     41  NH2       16.4910   23.1810   53.8930 N.pl3 122  ARG122      0.1354
     42  N         18.8790   17.5530   53.7510 N.3   139  ASN139     -0.1225
     43  CA        17.8860   17.3360   52.7150 C.3   139  ASN139      0.1785
     44  C         18.3050   17.9230   51.3720 C.2   139  ASN139      0.2597
     45  O         17.4710   18.1390   50.5020 O.2   139  ASN139     -0.2718
     46  CB        16.5210   17.8930   53.1440 C.3   139  ASN139      0.1169
     47  CG        15.3640   17.1010   52.5550 C.2   139  ASN139      0.2627
     48  OD1       15.4930   15.9050   52.2920 O.2   139  ASN139     -0.2716
     49  ND2       14.2310   17.7630   52.3400 N.am  139  ASN139     -0.0877
     50  N         19.6030   18.1730   51.2050 N.am  140  ARG140     -0.1979
     51  CA        20.1760   18.4300   49.8830 C.3   140  ARG140      0.1597
     52  C         21.3130   17.4430   49.6270 C.2   140  ARG140      0.2287
     53  O         22.1040   17.6180   48.6950 O.2   140  ARG140     -0.2864
     54  CB        20.7470   19.8530   49.7850 C.3   140  ARG140      0.0334
     55  CG        19.7770   20.9800   50.0540 C.3   140  ARG140      0.0492
     56  CD        18.6940   21.0860   48.9910 C.3   140  ARG140      0.2205
     57  NE        17.7750   22.1860   49.2700 N.pl3 140  ARG140     -0.0865
     58  CZ        16.7290   22.0900   50.0820 C.cat 140  ARG140      0.5346
     59  NH1       16.4740   20.9390   50.6940 N.pl3 140  ARG140      0.1354
     60  NH2       15.9330   23.1360   50.2750 N.pl3 140  ARG140      0.1354
     61  N         22.5090   27.9140   54.0060 N.3   158  GLU158     -0.1231
     62  CA        21.5920   27.0670   54.7560 C.3   158  GLU158      0.1699
     63  C         21.1980   25.8180   53.9810 C.2   158  GLU158      0.2592
     64  O         20.7670   24.8290   54.5770 O.2   158  GLU158     -0.2718
     65  CB        20.3390   27.8560   55.1350 C.3   158  GLU158      0.0402
     66  CG        20.5650   28.8670   56.2460 C.3   158  GLU158      0.1161
     67  CD        20.6500   28.2110   57.6140 C.2   158  GLU158      0.3649
     68  OE1       21.7320   27.7010   57.9700 O.co2 158  GLU158     -0.2457
     69  OE2       19.6290   28.2000   58.3320 O.co2 158  GLU158     -0.2457
     70  N         21.3430   25.8580   52.6590 N.am  159  THR159     -0.1953
     71  CA        21.0610   24.6830   51.8320 C.3   159  THR159      0.1897
     72  C         22.3340   24.0790   51.2260 C.2   159  THR159      0.2313
     73  O         22.2910   23.4810   50.1470 O.2   159  THR159     -0.2863
     74  CB        20.1010   25.0160   50.6720 C.3   159  THR159      0.1794
     75  OG1       20.7200   25.9730   49.8000 O.3   159  THR159     -0.2208
     76  CG2       18.7840   25.5800   51.2040 C.3   159  THR159      0.0378
     77  N          8.5840   17.4330   58.2460 N.3   192  HIS192     -0.1226
     78  CA         9.1980   18.7420   58.4550 C.3   192  HIS192      0.1752
     79  C          8.1530   19.7250   59.0020 C.2   192  HIS192      0.2597
     80  O          6.9780   19.3710   59.1860 O.2   192  HIS192     -0.2718
     81  CB         9.7620   19.2880   57.1320 C.3   192  HIS192      0.0759
     82  CG        10.9470   18.5340   56.6050 C.ar  192  HIS192      0.0818
     83  ND1       12.1900   19.1180   56.5160 N.ar  192  HIS192     -0.2268
     84  CD2       11.0180   17.2620   56.1400 C.ar  192  HIS192      0.1154
     85  CE1       12.9850   18.2000   56.0030 C.ar  192  HIS192      0.1986
     86  NE2       12.3260   17.0580   55.7580 N.ar  192  HIS192     -0.2212
     87  N          8.5880   20.9580   59.2600 N.am  193  SER193     -0.1938
     88  CA         7.6770   22.0830   59.4470 C.3   193  SER193      0.2055
     89  C          8.3970   23.3290   58.9210 C.2   193  SER193      0.2643
     90  O          9.6120   23.2950   58.7180 O.2   193  SER193     -0.2714
     91  CB         7.3290   22.2540   60.9400 C.3   193  SER193      0.2130
     92  OG         8.4460   22.7190   61.6770 O.3   193  SER193     -0.2179
     93  N          7.6630   24.4100   58.6570 N.am  194  TYR194     -0.1959
     94  CA         6.2020   24.4580   58.7740 C.3   194  TYR194      0.1771
     95  C          5.5920   24.7190   57.4000 C.2   194  TYR194      0.2620
     96  O          6.3160   24.8550   56.4270 O.2   194  TYR194     -0.2715
     97  CB         5.8020   25.5870   59.7150 C.3   194  TYR194      0.0574
     98  CG         6.3610   26.9200   59.2870 C.ar  194  TYR194     -0.0198
     99  CD1        7.6760   27.2680   59.5820 C.ar  194  TYR194     -0.0009
    100  CD2        5.5930   27.8170   58.5600 C.ar  194  TYR194     -0.0009
    101  CE1        8.2110   28.4740   59.1590 C.ar  194  TYR194      0.0417
    102  CE2        6.1170   29.0250   58.1320 C.ar  194  TYR194      0.0417
    103  CZ         7.4270   29.3460   58.4350 C.ar  194  TYR194      0.1957
    104  OH         7.9570   30.5380   58.0050 O.3   194  TYR194     -0.2866
    105  N          4.2610   24.7840   57.3400 N.am  195  SER195     -0.1950
    106  CA         3.5210   25.2510   56.1580 C.3   195  SER195      0.1924
    107  C          2.1330   24.6340   56.0110 C.2   195  SER195      0.2314
    108  O          1.3000   25.1580   55.2770 O.2   195  SER195     -0.2863
    109  CB         4.2930   24.9750   54.8640 C.3   195  SER195      0.2116
    110  OG         4.9250   26.1520   54.4000 O.3   195  SER195     -0.2180
    111  N          3.6300   17.1550   50.4370 N.3   199  LEU199     -0.1245
    112  CA         4.2910   17.2200   49.1450 C.3   199  LEU199      0.1561
    113  C          4.6950   15.8250   48.6760 C.2   199  LEU199      0.2260
    114  O          5.0070   14.9500   49.4820 O.2   199  LEU199     -0.2867
    115  CB         5.5370   18.1040   49.2240 C.3   199  LEU199      0.0270
    116  CG         5.4320   19.5310   49.7720 C.3   199  LEU199      0.0019
    117  CD1        4.3060   20.2690   49.0750 C.3   199  LEU199      0.0001
    118  CD2        5.2030   19.4890   51.2900 C.3   199  LEU199      0.0001
    119  N         11.2050   17.5280   43.2770 N.3   203  SER203     -0.1217
    120  CA        11.7360   18.8510   43.5920 C.3   203  SER203      0.1889
    121  C         13.0600   19.0960   42.8720 C.2   203  SER203      0.2288
    122  O         13.4740   20.2460   42.6900 O.2   203  SER203     -0.2866
    123  CB        11.9630   19.0030   45.1020 C.3   203  SER203      0.2089
    124  OG        10.7550   18.8320   45.8220 O.3   203  SER203     -0.2183
    125  N          6.6740   18.9290   45.0120 N.3   239  GLY239     -0.1225
    126  CA         7.5500   19.8360   45.7330 C.3   239  GLY239      0.1811
    127  C          8.0580   21.0230   44.9370 C.2   239  GLY239      0.2280
    128  O          8.0910   22.1460   45.4480 O.2   239  GLY239     -0.2866
    129  N          6.5090   24.3570   46.6560 N.3   243  ILE243     -0.1231
    130  CA         7.4050   25.0300   47.5920 C.3   243  ILE243      0.1692
    131  C          8.5450   25.7380   46.8650 C.2   243  ILE243      0.2592
    132  O          8.5900   26.9670   46.8150 O.2   243  ILE243     -0.2718
    133  CB         8.0200   24.0320   48.5810 C.3   243  ILE243      0.0266
    134  CG1        6.9120   23.2410   49.2700 C.3   243  ILE243      0.0019
    135  CG2        8.8430   24.7710   49.6190 C.3   243  ILE243      0.0020
    136  CD1        6.0430   24.0820   50.1440 C.3   243  ILE243      0.0001
    137  N          9.4730   24.9540   46.3240 N.am  244  TYR244     -0.1976
    138  CA        10.5500   25.4720   45.4810 C.3   244  TYR244      0.1639
    139  C         11.4210   24.3530   44.9210 C.2   244  TYR244      0.2290
    140  O         11.4950   23.2640   45.4830 O.2   244  TYR244     -0.2864
    141  CB        11.4420   26.4680   46.2480 C.3   244  TYR244      0.0560
    142  CG        11.8180   26.0580   47.6560 C.ar  244  TYR244     -0.0198
    143  CD1       12.4050   24.8220   47.9240 C.ar  244  TYR244     -0.0009
    144  CD2       11.5790   26.9100   48.7250 C.ar  244  TYR244     -0.0009
    145  CE1       12.7390   24.4510   49.2320 C.ar  244  TYR244      0.0417
    146  CE2       11.9070   26.5500   50.0220 C.ar  244  TYR244      0.0417
    147  CZ        12.4840   25.3220   50.2740 C.ar  244  TYR244      0.1957
    148  OH        12.7940   24.9790   51.5800 O.3   244  TYR244     -0.2866
    149  N         14.4470   22.0990   44.5990 N.3   246  ALA246     -0.1245
    150  CA        15.4200   21.7280   45.6200 C.3   246  ALA246      0.1562
    151  C         15.8530   20.2790   45.4500 C.2   246  ALA246      0.2260
    152  O         15.1450   19.3530   45.8580 O.2   246  ALA246     -0.2867
    153  CB        14.8260   21.9240   47.0060 C.3   246  ALA246      0.0290
    154  N         16.8550   15.8150   47.8990 N.3   249  GLY249     -0.1225
    155  CA        15.9590   15.5210   49.0000 C.3   249  GLY249      0.1811
    156  C         15.7340   14.0310   49.1590 C.2   249  GLY249      0.2280
    157  O         15.8550   13.2660   48.1980 O.2   249  GLY249     -0.2866
    158  N         12.8770   12.4880   49.9070 N.3   251  ASP251     -0.1225
    159  CA        11.6130   12.0100   49.3520 C.3   251  ASP251      0.1805
    160  C         11.7530   11.6300   47.8840 C.2   251  ASP251      0.2597
    161  O         11.2560   10.5870   47.4540 O.2   251  ASP251     -0.2718
    162  CB        10.4920   13.0500   49.5240 C.3   251  ASP251      0.1424
    163  CG        10.8740   14.4460   49.0280 C.2   251  ASP251      0.3668
    164  OD1       12.0400   14.6650   48.6230 O.co2 251  ASP251     -0.2456
    165  OD2        9.9880   15.3350   49.0550 O.co2 251  ASP251     -0.2456
    166  N         12.4410   12.4720   47.1230 N.am  252  ASP252     -0.1974
    167  CA        12.7010   12.1960   45.7140 C.3   252  ASP252      0.1709
    168  C         13.5580   10.9410   45.5810 C.2   252  ASP252      0.2293
    169  O         13.3090   10.0890   44.7250 O.2   252  ASP252     -0.2864
    170  CB        13.4350   13.3740   45.0640 C.3   252  ASP252      0.1436
    171  CG        12.5260   14.5670   44.7810 C.2   252  ASP252      0.3671
    172  OD1       11.2830   14.4570   44.9270 O.co2 252  ASP252     -0.2456
    173  OD2       13.0680   15.6300   44.3960 O.co2 252  ASP252     -0.2456
    174  N          6.6140   14.3290   51.7140 N.3   264  THR264     -0.1218
    175  CA         7.1440   15.2370   52.7230 C.3   264  THR264      0.1862
    176  C          5.9830   15.9690   53.3870 C.2   264  THR264      0.2287
    177  O          5.1950   16.6230   52.7140 O.2   264  THR264     -0.2866
    178  CB         8.1000   16.2920   52.1040 C.3   264  THR264      0.1770
    179  OG1        9.2860   15.6490   51.6220 O.3   264  THR264     -0.2211
    180  CG2        8.4860   17.3400   53.1530 C.3   264  THR264      0.0375
    181  N          4.6960   18.9650   55.8490 N.3   266  GLU266     -0.1245
    182  CA         4.9520   20.2120   56.5580 C.3   266  GLU266      0.1567
    183  C          3.8090   20.4330   57.5430 C.2   266  GLU266      0.2260
    184  O          2.6630   20.6010   57.1400 O.2   266  GLU266     -0.2867
    185  CB         5.0150   21.3750   55.5680 C.3   266  GLU266      0.0388
    186  CG         6.1830   21.3060   54.6010 C.3   266  GLU266      0.1160
    187  CD         7.5020   21.6510   55.2590 C.2   266  GLU266      0.3649
    188  OE1        7.5200   21.9010   56.4810 O.co2 266  GLU266     -0.2457
    189  OE2        8.5260   21.6740   54.5510 O.co2 266  GLU266     -0.2457
    190  N          8.6750   27.9290   63.1360 N.3   275  PHE275     -0.1241
    191  CA         9.4530   26.8740   63.7630 C.3   275  PHE275      0.1605
    192  C          9.2320   26.8310   65.2720 C.2   275  PHE275      0.2264
    193  O          9.3430   25.7680   65.8830 O.2   275  PHE275     -0.2867
    194  CB        10.9490   27.0750   63.4850 C.3   275  PHE275      0.0534
    195  CG        11.3020   27.0850   62.0200 C.ar  275  PHE275     -0.0203
    196  CD1       10.9160   26.0460   61.1970 C.ar  275  PHE275     -0.0042
    197  CD2       12.0160   28.1350   61.4750 C.ar  275  PHE275     -0.0042
    198  CE1       11.2370   26.0510   59.8510 C.ar  275  PHE275     -0.0003
    199  CE2       12.3410   28.1480   60.1310 C.ar  275  PHE275     -0.0003
    200  CZ        11.9500   27.1030   59.3190 C.ar  275  PHE275     -0.0000
@<TRIPOS>BOND
     1   122   121    2
     2   121   120    1
     3   119   120    1
     4   120   123    1
     5   173   171   ar
     6   149   150    1
     7   169   168    2
     8   171   172   ar
     9   171   170    1
    10   139   138    1
    11   139   140    2
    12   127   128    2
    13   127   126    1
    14   125   126    1
    15   170   167    1
    16   123   124    1
    17   151   150    1
    18   151   152    2
    19   138   141    1
    20   138   137    1
    21   168   167    1
    22   150   153    1
    23   167   166    1
    24   141   142    1
    25   137   131   am
    26   129   130    1
    27   132   131    2
    28   131   130    1
    29   166   160   am
    30   161   160    2
    31   130   133    1
    32   142   143   ar
    33   142   144   ar
    34   160   159    1
    35   154   155    1
    36   143   145   ar
    37   157   156    2
    38   133   134    1
    39   133   135    1
    40   164   163   ar
    41   113   112    1
    42   113   114    2
    43    53    52    2
    44   144   146   ar
    45    56    57    1
    46    56    55    1
    47   155   156    1
    48   163   165   ar
    49   163   162    1
    50   117   116    1
    51   112   115    1
    52   112   111    1
    53   115   116    1
    54   145   147   ar
    55    57    58    2
    56   134   136    1
    57   159   162    1
    58   159   158    1
    59    52    51    1
    60   116   118    1
    61    54    51    1
    62    54    55    1
    63    75    74    1
    64    51    50    1
    65   146   147   ar
    66    58    60    1
    67    58    59    1
    68    73    72    2
    69   147   148    1
    70    45    44    2
    71    74    76    1
    72    74    71    1
    73    50    44   am
    74    72    71    1
    75    44    43    1
    76   179   178    1
    77   174   175    1
    78    71    70    1
    79   178   175    1
    80   178   180    1
    81    48    47    2
    82    49    47   am
    83    47    46    1
    84    70    63   am
    85   177   176    2
    86    43    46    1
    87    43    42    1
    88   175   176    1
    89    41    39    1
    90    63    64    2
    91    63    62    1
    92    61    62    1
    93   110   109    1
    94   189   187   ar
    95   186   187    1
    96   186   185    1
    97    62    65    1
    98   109   106    1
    99    39    38    2
   100    39    40    1
   101    65    66    1
   102   187   188   ar
   103   108   107    2
   104    38    37    1
   105   185   182    1
   106    86    85   ar
   107    86    84   ar
   108     9    10   ar
   109     9     7   ar
   110   181   182    1
   111    85    83   ar
   112   107   106    1
   113    10     8   ar
   114    84    82   ar
   115   106   105    1
   116    66    67    1
   117    96    95    2
   118    83    82   ar
   119   182   183    1
   120    82    81    1
   121    37    36    1
   122     7     6   ar
   123    81    78    1
   124   184   183    2
   125   105    95   am
   126    95    94    1
   127     8     6   ar
   128    67    68   ar
   129    67    69   ar
   130    36    35    1
   131     6     5    1
   132   104   103    1
   133    21    19    1
   134   102   103   ar
   135   102   100   ar
   136    77    78    1
   137   103   101   ar
   138    78    79    1
   139    29    28   ar
   140   100    98   ar
   141    93    94    1
   142    93    89   am
   143    90    89    2
   144    94    97    1
   145    89    88    1
   146    79    80    2
   147    79    87   am
   148   101    99   ar
   149    35    32    1
   150    87    88    1
   151    98    99   ar
   152    98    97    1
   153   200   198   ar
   154   200   199   ar
   155    19    20    1
   156    19    18    2
   157    30    28   ar
   158     5     2    1
   159    88    91    1
   160    28    27    1
   161   198   196   ar
   162    33    34    2
   163    33    32    1
   164   199   197   ar
   165     1     2    1
   166    18    17    1
   167     2     3    1
   168    32    31    1
   169    27    26    1
   170    91    92    1
   171   196   195   ar
   172   197   195   ar
   173    17    16    1
   174     3     4    2
   175    26    23    1
   176   195   194    1
   177    16    15    1
   178   190   191    1
   179    23    22    1
   180    23    24    1
   181   194   191    1
   182    22    13   am
   183    15    12    1
   184   191   192    1
   185    11    12    1
   186    25    24    2
   187    13    12    1
   188    13    14    2
   189   192   193    2
