@<TRIPOS>MOLECULE
tmp/2pj5C00.pdb
 196 186 0 0 0
SMALL
GASTEIGER

@<TRIPOS>ATOM
      1  N         -5.4110   37.6240  131.2650 N.3    65  HIS65      -0.1241
      2  CA        -6.3140   38.5770  131.8960 C.3    65  HIS65       0.1621
      3  C         -7.2580   39.2000  130.8800 C.2    65  HIS65       0.2264
      4  O         -6.8300   39.7380  129.8550 O.2    65  HIS65      -0.2867
      5  CB        -5.5090   39.6620  132.6080 C.3    65  HIS65       0.0745
      6  CG        -4.8060   39.1750  133.8370 C.ar   65  HIS65       0.0817
      7  ND1       -3.5120   39.5330  134.1150 N.ar   65  HIS65      -0.2268
      8  CD2       -5.2740   38.3780  134.8290 C.ar   65  HIS65       0.1154
      9  CE1       -3.2190   38.9580  135.2650 C.ar   65  HIS65       0.1986
     10  NE2       -4.2540   38.2470  135.7400 N.ar   65  HIS65      -0.2212
     11  N         -9.2800   41.7500  130.3490 N.3    67  ARG67      -0.1231
     12  CA        -9.3590   43.1300  129.8750 C.3    67  ARG67       0.1694
     13  C         -8.1360   43.5930  129.0840 C.2    67  ARG67       0.2591
     14  O         -8.1370   44.6850  128.5150 O.2    67  ARG67      -0.2718
     15  CB        -9.5770   44.0750  131.0570 C.3    67  ARG67       0.0321
     16  CG        -8.4430   44.0820  132.0580 C.3    67  ARG67       0.0489
     17  CD        -8.8890   44.7320  133.3500 C.3    67  ARG67       0.2205
     18  NE        -7.8590   44.6890  134.3850 N.pl3  67  ARG67      -0.0865
     19  CZ        -8.0850   44.9800  135.6610 C.cat  67  ARG67       0.5346
     20  NH1       -9.3030   45.3280  136.0550 N.pl3  67  ARG67       0.1354
     21  NH2       -7.0950   44.9390  136.5430 N.pl3  67  ARG67       0.1354
     22  N         -7.0930   42.7720  129.0500 N.am   68  GLU68      -0.1979
     23  CA        -5.8510   43.1590  128.3860 C.3    68  GLU68       0.1602
     24  C         -5.8780   42.8070  126.8990 C.2    68  GLU68       0.2287
     25  O         -5.0990   41.9830  126.4220 O.2    68  GLU68      -0.2864
     26  CB        -4.6660   42.4960  129.0970 C.3    68  GLU68       0.0415
     27  CG        -4.5220   42.9930  130.5300 C.3    68  GLU68       0.1163
     28  CD        -3.6040   42.1540  131.3940 C.2    68  GLU68       0.3649
     29  OE1       -3.7430   42.2650  132.6300 O.co2  68  GLU68      -0.2457
     30  OE2       -2.7530   41.4030  130.8590 O.co2  68  GLU68      -0.2457
     31  N        -11.1290   40.9530  134.8660 N.3   123  ARG123     -0.1245
     32  CA        -9.7440   40.4750  134.8960 C.3   123  ARG123      0.1563
     33  C         -9.6600   38.9600  135.0960 C.2   123  ARG123      0.2260
     34  O         -8.9130   38.2690  134.3960 O.2   123  ARG123     -0.2867
     35  CB        -8.9850   41.1760  136.0260 C.3   123  ARG123      0.0307
     36  CG        -7.6370   40.5570  136.3950 C.3   123  ARG123      0.0489
     37  CD        -7.0690   41.2430  137.6290 C.3   123  ARG123      0.2205
     38  NE        -5.7940   40.6920  138.0920 N.pl3 123  ARG123     -0.0865
     39  CZ        -4.6110   41.0220  137.5870 C.cat 123  ARG123      0.5346
     40  NH1       -4.5310   41.8930  136.5870 N.pl3 123  ARG123      0.1354
     41  NH2       -3.5010   40.5110  138.1010 N.pl3 123  ARG123      0.1354
     42  N         -3.2850   34.4370  137.1680 N.3   140  ASN140     -0.1225
     43  CA        -1.8610   34.6370  137.3980 C.3   140  ASN140      0.1785
     44  C         -1.5050   34.8200  138.8700 C.2   140  ASN140      0.2597
     45  O         -0.4350   35.3320  139.2050 O.2   140  ASN140     -0.2718
     46  CB        -1.3280   35.8170  136.5860 C.3   140  ASN140      0.1169
     47  CG         0.1040   35.5960  136.1520 C.2   140  ASN140      0.2627
     48  OD1        0.5150   34.4570  135.9290 O.2   140  ASN140     -0.2716
     49  ND2        0.8740   36.6720  136.0420 N.am  140  ASN140     -0.0877
     50  N         -2.4100   34.3930  139.7410 N.am  141  ARG141     -0.1979
     51  CA        -2.0780   34.1720  141.1440 C.3   141  ARG141      0.1597
     52  C         -2.3550   32.7180  141.5070 C.2   141  ARG141      0.2287
     53  O         -2.3250   32.3510  142.6780 O.2   141  ARG141     -0.2864
     54  CB        -2.9130   35.0870  142.0500 C.3   141  ARG141      0.0334
     55  CG        -2.7020   36.5770  141.8100 C.3   141  ARG141      0.0492
     56  CD        -1.2860   37.0180  142.1700 C.3   141  ARG141      0.2205
     57  NE        -1.1240   38.4570  141.9750 N.pl3 141  ARG141     -0.0865
     58  CZ        -0.9130   39.0250  140.7900 C.cat 141  ARG141      0.5346
     59  NH1       -0.8350   38.2750  139.7020 N.pl3 141  ARG141      0.1354
     60  NH2       -0.7970   40.3430  140.6890 N.pl3 141  ARG141      0.1354
     61  N         -9.7130   41.3240  143.0110 N.3   159  GLU159     -0.1231
     62  CA        -9.2500   41.1040  141.6450 C.3   159  GLU159      0.1699
     63  C         -8.0270   40.1970  141.5790 C.2   159  GLU159      0.2592
     64  O         -7.7330   39.6250  140.5310 O.2   159  GLU159     -0.2718
     65  CB        -8.9240   42.4450  140.9780 C.3   159  GLU159      0.0402
     66  CG       -10.1140   43.3820  140.8430 C.3   159  GLU159      0.1161
     67  CD       -10.9880   43.0630  139.6430 C.2   159  GLU159      0.3649
     68  OE1      -11.3290   41.8770  139.4400 O.co2 159  GLU159     -0.2457
     69  OE2      -11.3360   44.0080  138.9000 O.co2 159  GLU159     -0.2457
     70  N         -7.3080   40.0730  142.6920 N.am  160  THR160     -0.1953
     71  CA        -6.1190   39.2290  142.7220 C.3   160  THR160      0.1897
     72  C         -6.3080   37.9840  143.5810 C.2   160  THR160      0.2313
     73  O         -5.3390   37.4110  144.0750 O.2   160  THR160     -0.2863
     74  CB        -4.8840   40.0100  143.2330 C.3   160  THR160      0.1794
     75  OG1       -5.1420   40.5230  144.5440 O.3   160  THR160     -0.2208
     76  CG2       -4.5590   41.1660  142.2960 C.3   160  THR160      0.0378
     77  N          0.9680   40.1990  128.5110 N.3   193  HIS193     -0.1226
     78  CA         0.0170   40.9820  129.2970 C.3   193  HIS193      0.1752
     79  C          0.0580   42.4350  128.8200 C.2   193  HIS193      0.2597
     80  O          0.8720   42.7980  127.9750 O.2   193  HIS193     -0.2718
     81  CB         0.3970   40.9420  130.7850 C.3   193  HIS193      0.0759
     82  CG         0.1500   39.6200  131.4470 C.ar  193  HIS193      0.0818
     83  ND1       -0.8560   39.4550  132.3640 N.ar  193  HIS193     -0.2268
     84  CD2        0.8230   38.4510  131.3060 C.ar  193  HIS193      0.1154
     85  CE1       -0.7780   38.1990  132.7640 C.ar  193  HIS193      0.1986
     86  NE2        0.2230   37.5500  132.1520 N.ar  193  HIS193     -0.2212
     87  N         -0.8300   43.2600  129.3640 N.am  194  SER194     -0.1938
     88  CA        -0.6750   44.7140  129.2940 C.3   194  SER194      0.2055
     89  C         -1.2460   45.2750  130.5970 C.2   194  SER194      0.2643
     90  O         -1.9470   44.5600  131.3070 O.2   194  SER194     -0.2714
     91  CB        -1.4310   45.2770  128.0810 C.3   194  SER194      0.2130
     92  OG        -2.8340   45.2990  128.2910 O.3   194  SER194     -0.2179
     93  N         -0.9460   46.5250  130.9410 N.am  195  TYR195     -0.1959
     94  CA        -0.0360   47.3950  130.2060 C.3   195  TYR195      0.1771
     95  C          1.1010   47.8060  131.1500 C.2   195  TYR195      0.2620
     96  O          1.0460   47.5200  132.3460 O.2   195  TYR195     -0.2715
     97  CB        -0.7900   48.6450  129.7400 C.3   195  TYR195      0.0574
     98  CG        -1.4060   49.4320  130.8810 C.ar  195  TYR195     -0.0198
     99  CD1       -2.6530   49.0890  131.3970 C.ar  195  TYR195     -0.0009
    100  CD2       -0.7260   50.4940  131.4670 C.ar  195  TYR195     -0.0009
    101  CE1       -3.2010   49.7770  132.4660 C.ar  195  TYR195      0.0417
    102  CE2       -1.2690   51.1890  132.5370 C.ar  195  TYR195      0.0417
    103  CZ        -2.5050   50.8240  133.0330 C.ar  195  TYR195      0.1957
    104  OH        -3.0400   51.4930  134.1130 O.3   195  TYR195     -0.2866
    105  N          2.1150   48.4740  130.6010 N.am  196  SER196     -0.1950
    106  CA         3.1830   49.1220  131.3750 C.3   196  SER196      0.1924
    107  C          4.4710   49.2550  130.5700 C.2   196  SER196      0.2314
    108  O          5.3940   49.9590  130.9830 O.2   196  SER196     -0.2863
    109  CB         3.4950   48.3530  132.6670 C.3   196  SER196      0.2116
    110  OG         2.6780   48.8030  133.7360 O.3   196  SER196     -0.2180
    111  N          9.5770   41.5160  132.0350 N.3   200  LEU200     -0.1245
    112  CA         9.9450   41.0330  133.3650 C.3   200  LEU200      0.1561
    113  C         10.4390   39.5970  133.3040 C.2   200  LEU200      0.2260
    114  O          9.9180   38.7890  132.5370 O.2   200  LEU200     -0.2867
    115  CB         8.7470   41.1010  134.3200 C.3   200  LEU200      0.0270
    116  CG         8.0930   42.4630  134.5650 C.3   200  LEU200      0.0019
    117  CD1        9.1640   43.5260  134.7560 C.3   200  LEU200      0.0001
    118  CD2        7.2000   42.8180  133.3890 C.3   200  LEU200      0.0001
    119  N          8.9580   37.0450  140.9060 N.3   204  SER204     -0.1217
    120  CA         7.9870   37.9490  141.5030 C.3   204  SER204      0.1889
    121  C          7.5130   37.4840  142.8770 C.2   204  SER204      0.2288
    122  O          7.1480   38.3070  143.7120 O.2   204  SER204     -0.2866
    123  CB         6.7790   38.1190  140.5780 C.3   204  SER204      0.2089
    124  OG         7.1420   38.8210  139.4030 O.3   204  SER204     -0.2183
    125  N          8.1240   45.8140  139.0920 N.3   244  ILE244     -0.1231
    126  CA         6.7330   46.2470  139.1000 C.3   244  ILE244      0.1692
    127  C          6.0780   46.0560  140.4700 C.2   244  ILE244      0.2592
    128  O          5.5830   47.0150  141.0590 O.2   244  ILE244     -0.2718
    129  CB         5.9170   45.5230  137.9900 C.3   244  ILE244      0.0266
    130  CG1        4.5350   46.1690  137.8640 C.3   244  ILE244      0.0019
    131  CG2        5.8000   44.0350  138.2920 C.3   244  ILE244      0.0020
    132  CD1        3.7670   45.7380  136.6260 C.3   244  ILE244      0.0001
    133  N          6.0880   44.8270  140.9800 N.am  245  TYR245     -0.1976
    134  CA         5.6760   44.5500  142.3560 C.3   245  TYR245      0.1639
    135  C          5.8450   43.0740  142.6920 C.2   245  TYR245      0.2290
    136  O          5.8470   42.2230  141.8080 O.2   245  TYR245     -0.2864
    137  CB         4.2120   44.9630  142.5930 C.3   245  TYR245      0.0560
    138  CG         3.2390   44.5940  141.4860 C.ar  245  TYR245     -0.0198
    139  CD1        2.9320   43.2660  141.2070 C.ar  245  TYR245     -0.0009
    140  CD2        2.6200   45.5800  140.7290 C.ar  245  TYR245     -0.0009
    141  CE1        2.0330   42.9340  140.2000 C.ar  245  TYR245      0.0417
    142  CE2        1.7220   45.2590  139.7240 C.ar  245  TYR245      0.0417
    143  CZ         1.4330   43.9370  139.4630 C.ar  245  TYR245      0.1957
    144  OH         0.5450   43.6220  138.4600 O.3   245  TYR245     -0.2866
    145  N          4.5480   39.5350  143.7230 N.3   247  ALA247     -0.1245
    146  CA         3.2840   38.8370  143.5400 C.3   247  ALA247      0.1562
    147  C          3.5920   37.3650  143.3290 C.2   247  ALA247      0.2260
    148  O          4.4270   37.0160  142.4970 O.2   247  ALA247     -0.2867
    149  CB         2.5450   39.3960  142.3340 C.3   247  ALA247      0.0290
    150  N          2.4300   33.3210  139.9760 N.3   250  GLY250     -0.1225
    151  CA         2.4380   33.6500  138.5600 C.3   250  GLY250      0.1811
    152  C          3.0380   32.5580  137.6910 C.2   250  GLY250      0.2280
    153  O          3.9030   31.8000  138.1370 O.2   250  GLY250     -0.2866
    154  N          4.9640   32.7590  135.0070 N.3   252  ASP252     -0.1225
    155  CA         6.3550   32.9400  134.6130 C.3   252  ASP252      0.1805
    156  C          7.3180   32.3460  135.6420 C.2   252  ASP252      0.2597
    157  O          8.2670   31.6590  135.2720 O.2   252  ASP252     -0.2718
    158  CB         6.6740   34.4270  134.3570 C.3   252  ASP252      0.1424
    159  CG         6.3480   35.3250  135.5390 C.2   252  ASP252      0.3668
    160  OD1        5.8630   34.8270  136.5760 O.co2 252  ASP252     -0.2456
    161  OD2        6.5820   36.5480  135.4210 O.co2 252  ASP252     -0.2456
    162  N          7.0610   32.5830  136.9260 N.am  253  ASP253     -0.1974
    163  CA         7.8990   32.0260  137.9860 C.3   253  ASP253      0.1709
    164  C          7.7470   30.5120  138.0440 C.2   253  ASP253      0.2293
    165  O          8.7220   29.7850  138.2290 O.2   253  ASP253     -0.2864
    166  CB         7.5190   32.6190  139.3490 C.3   253  ASP253      0.1436
    167  CG         7.9340   34.0770  139.4960 C.2   253  ASP253      0.3671
    168  OD1        8.6910   34.5830  138.6420 O.co2 253  ASP253     -0.2456
    169  OD2        7.5000   34.7160  140.4770 O.co2 253  ASP253     -0.2456
    170  N          7.5400   37.7010  131.3070 N.3   265  THR265     -0.1218
    171  CA         6.2420   38.3380  131.1630 C.3   265  THR265      0.1862
    172  C          6.4190   39.6340  130.3790 C.2   265  THR265      0.2287
    173  O          7.2240   40.4870  130.7490 O.2   265  THR265     -0.2866
    174  CB         5.6220   38.6640  132.5330 C.3   265  THR265      0.1770
    175  OG1        5.3340   37.4470  133.2300 O.3   265  THR265     -0.2211
    176  CG2        4.3370   39.4540  132.3570 C.3   265  THR265      0.0375
    177  N          4.7170   43.1470  129.1810 N.3   267  GLU267     -0.1245
    178  CA         3.6500   44.1110  129.4150 C.3   267  GLU267      0.1567
    179  C          3.6740   45.0950  128.2580 C.2   267  GLU267      0.2260
    180  O          4.6190   45.8680  128.1200 O.2   267  GLU267     -0.2867
    181  CB         3.8840   44.8600  130.7310 C.3   267  GLU267      0.0388
    182  CG         3.6610   44.0180  131.9820 C.3   267  GLU267      0.1160
    183  CD         2.2100   43.6060  132.1530 C.2   267  GLU267      0.3649
    184  OE1        1.3490   44.1490  131.4310 O.co2 267  GLU267     -0.2457
    185  OE2        1.9310   42.7380  133.0110 O.co2 267  GLU267     -0.2457
    186  N         -5.7660   49.7150  129.7890 N.3   276  PHE276     -0.1241
    187  CA        -6.2670   48.4740  129.2080 C.3   276  PHE276      0.1605
    188  C         -7.0870   48.7200  127.9490 C.2   276  PHE276      0.2264
    189  O         -7.2720   47.8150  127.1390 O.2   276  PHE276     -0.2867
    190  CB        -7.1230   47.7140  130.2270 C.3   276  PHE276      0.0534
    191  CG        -6.4030   47.3930  131.5010 C.ar  276  PHE276     -0.0203
    192  CD1       -5.3180   46.5300  131.5010 C.ar  276  PHE276     -0.0042
    193  CD2       -6.8090   47.9580  132.7010 C.ar  276  PHE276     -0.0042
    194  CE1       -4.6490   46.2340  132.6740 C.ar  276  PHE276     -0.0003
    195  CE2       -6.1480   47.6690  133.8770 C.ar  276  PHE276     -0.0003
    196  CZ        -5.0640   46.8040  133.8660 C.ar  276  PHE276     -0.0000
@<TRIPOS>BOND
     1    25    24    2
     2    24    23    1
     3   189   188    2
     4   188   187    1
     5    80    79    2
     6    91    92    1
     7    91    88    1
     8   180   179    2
     9   179   178    1
    10    23    22    1
    11    23    26    1
    12    77    78    1
    13    14    13    2
    14    79    78    1
    15    79    87   am
    16    22    13   am
    17    13    12    1
    18    26    27    1
    19   177   178    1
    20   187   186    1
    21   187   190    1
    22    88    87    1
    23    88    89    1
    24    78    81    1
    25   178   181    1
    26    97    94    1
    27    97    98    1
    28     4     3    2
    29    12    11    1
    30    12    15    1
    31    94    93    1
    32    94    95    1
    33   190   191    1
    34   172   173    2
    35   172   171    1
    36    27    28    1
    37   107   108    2
    38   107   106    1
    39    89    93   am
    40    89    90    2
    41   105    95   am
    42   105   106    1
    43   181   182    1
    44    81    82    1
    45    30    28   ar
    46     3     2    1
    47    98    99   ar
    48    98   100   ar
    49    15    16    1
    50    95    96    2
    51   171   170    1
    52   171   174    1
    53     1     2    1
    54    84    82   ar
    55    84    86   ar
    56   106   109    1
    57    28    29   ar
    58    99   101   ar
    59   184   183   ar
    60    82    83   ar
    61   100   102   ar
    62   192   191   ar
    63   192   194   ar
    64   191   193   ar
    65     2     5    1
    66   182   183    1
    67   111   112    1
    68    16    17    1
    69    86    85   ar
    70   183   185   ar
    71   176   174    1
    72    83    85   ar
    73   101   103   ar
    74   174   175    1
    75   114   113    2
    76   102   103   ar
    77     5     6    1
    78   109   110    1
    79   194   196   ar
    80   193   195   ar
    81   103   104    1
    82   113   112    1
    83    17    18    1
    84   112   115    1
    85   118   116    1
    86     6     7   ar
    87     6     8   ar
    88   196   195   ar
    89     7     9   ar
    90   115   116    1
    91   158   155    1
    92   158   159    1
    93    18    19    2
    94    34    33    2
    95   116   117    1
    96   155   154    1
    97   155   156    1
    98     8    10   ar
    99    31    32    1
   100    32    33    1
   101    32    35    1
   102     9    10   ar
   103   157   156    2
   104   161   159   ar
   105   159   160   ar
   106   156   162   am
   107    19    20    1
   108    19    21    1
   109    48    47    2
   110    35    36    1
   111    49    47   am
   112    47    46    1
   113    36    37    1
   114    46    43    1
   115    40    39    1
   116   132   130    1
   117   162   163    1
   118    42    43    1
   119    43    44    1
   120    39    38    2
   121    39    41    1
   122    37    38    1
   123   152   153    2
   124   152   151    1
   125   130   129    1
   126   163   164    1
   127   163   166    1
   128   129   131    1
   129   129   126    1
   130   164   165    2
   131   144   143    1
   132   151   150    1
   133   168   167   ar
   134    44    45    2
   135    44    50   am
   136    69    67   ar
   137   125   126    1
   138   126   127    1
   139   166   167    1
   140   124   123    1
   141    68    67   ar
   142   143   142   ar
   143   143   141   ar
   144   167   169   ar
   145    67    66    1
   146    59    58    1
   147   142   140   ar
   148    50    51    1
   149   141   139   ar
   150   127   133   am
   151   127   128    2
   152    64    63    2
   153   123   120    1
   154    60    58    1
   155   140   138   ar
   156    58    57    2
   157    66    65    1
   158   119   120    1
   159    65    62    1
   160   133   134    1
   161    51    52    1
   162    51    54    1
   163   139   138   ar
   164   138   137    1
   165   120   121    1
   166    52    53    2
   167    63    62    1
   168    63    70   am
   169    62    61    1
   170   136   135    2
   171    55    54    1
   172    55    56    1
   173    57    56    1
   174    76    74    1
   175   149   146    1
   176   134   137    1
   177   134   135    1
   178   148   147    2
   179    70    71    1
   180    71    74    1
   181    71    72    1
   182   121   122    2
   183    74    75    1
   184   147   146    1
   185   146   145    1
   186    72    73    2
