@<TRIPOS>MOLECULE
tmp/2pj6A00.pdb
 192 181 0 0 0
SMALL
GASTEIGER

@<TRIPOS>ATOM
      1  N          6.5410   13.0400   14.1970 N.3    64  HIS64      -0.1241
      2  CA         5.2080   12.6650   14.6510 C.3    64  HIS64       0.1621
      3  C          5.0800   12.8310   16.1570 C.2    64  HIS64       0.2264
      4  O          5.8770   12.2990   16.9240 O.2    64  HIS64      -0.2867
      5  CB         4.9090   11.2250   14.2330 C.3    64  HIS64       0.0745
      6  CG         4.6850   11.0640   12.7610 C.ar   64  HIS64       0.0817
      7  ND1        5.1300    9.9630   12.0770 N.ar   64  HIS64      -0.2268
      8  CD2        4.0470   11.8980   11.9010 C.ar   64  HIS64       0.1154
      9  CE1        4.7570   10.1410   10.8230 C.ar   64  HIS64       0.1986
     10  NE2        4.0970   11.2980   10.6660 N.ar   64  HIS64      -0.2212
     11  N          3.3540   11.9910   18.7640 N.3    66  ARG66      -0.1231
     12  CA         3.1650   10.9910   19.8060 C.3    66  ARG66       0.1694
     13  C          4.3300   10.0260   19.9510 C.2    66  ARG66       0.2591
     14  O          4.3450    9.2050   20.8700 O.2    66  ARG66      -0.2718
     15  CB         1.9020   10.1870   19.5280 C.3    66  ARG66       0.0321
     16  CG         1.8850    9.4960   18.1760 C.3    66  ARG66       0.0489
     17  CD         0.4530    9.1280   17.8410 C.3    66  ARG66       0.2205
     18  NE         0.3440    8.3940   16.5910 N.pl3  66  ARG66      -0.0865
     19  CZ        -0.8150    8.0070   16.0710 C.cat  66  ARG66       0.5346
     20  NH1       -1.9460    8.2980   16.7000 N.pl3  66  ARG66       0.1354
     21  NH2       -0.8430    7.3200   14.9380 N.pl3  66  ARG66       0.1354
     22  N          5.2950   10.1120   19.0460 N.am   67  GLU67      -0.1979
     23  CA         6.3950    9.1440   19.0370 C.3    67  GLU67       0.1602
     24  C          7.5370    9.6040   19.9410 C.2    67  GLU67       0.2287
     25  O          8.6570    9.8600   19.4920 O.2    67  GLU67      -0.2864
     26  CB         6.8610    8.9100   17.6010 C.3    67  GLU67       0.0415
     27  CG         5.7510    8.3530   16.7230 C.3    67  GLU67       0.1163
     28  CD         6.1050    8.3160   15.2470 C.2    67  GLU67       0.3649
     29  OE1        7.2830    8.5270   14.8930 O.co2  67  GLU67      -0.2457
     30  OE2        5.1840    8.0640   14.4520 O.co2  67  GLU67      -0.2457
     31  N         -0.7560   13.0500   16.2220 N.3   122  ARG122     -0.1245
     32  CA         0.2960   12.6980   15.2660 C.3   122  ARG122      0.1563
     33  C          0.7250   13.9040   14.4270 C.2   122  ARG122      0.2260
     34  O          1.9170   14.1690   14.2650 O.2   122  ARG122     -0.2867
     35  CB        -0.2140   11.6040   14.3330 C.3   122  ARG122      0.0307
     36  CG         0.6810   11.2770   13.1430 C.3   122  ARG122      0.0489
     37  CD        -0.0850   10.3680   12.2090 C.3   122  ARG122      0.2205
     38  NE         0.5720   10.1030   10.9350 N.pl3 122  ARG122     -0.0865
     39  CZ         1.5770    9.2440   10.7920 C.cat 122  ARG122      0.5346
     40  NH1        2.0420    8.5950   11.8460 N.pl3 122  ARG122      0.1354
     41  NH2        2.0730    8.9900    9.5930 N.pl3 122  ARG122      0.1354
     42  N          5.0890   13.6930    7.2820 N.3   139  ASN139     -0.1225
     43  CA         5.7610   12.6790    6.4840 C.3   139  ASN139      0.1785
     44  C          4.8930   12.2430    5.3070 C.2   139  ASN139      0.2597
     45  O          5.1050   11.1810    4.7260 O.2   139  ASN139     -0.2718
     46  CB         6.1260   11.4690    7.3540 C.3   139  ASN139      0.1169
     47  CG         7.3740   10.7580    6.8650 C.2   139  ASN139      0.2627
     48  OD1        8.2580   11.3740    6.2600 O.2   139  ASN139     -0.2716
     49  ND2        7.4580    9.4640    7.1260 N.am  139  ASN139     -0.0877
     50  N          3.9070   13.0750    4.9700 N.am  140  ARG140     -0.1979
     51  CA         3.1590   12.9470    3.7180 C.3   140  ARG140      0.1597
     52  C          3.2400   14.2600    2.9410 C.2   140  ARG140      0.2287
     53  O          2.5880   14.4210    1.9070 O.2   140  ARG140     -0.2864
     54  CB         1.6840   12.6280    3.9920 C.3   140  ARG140      0.0334
     55  CG         1.4310   11.3140    4.7230 C.3   140  ARG140      0.0492
     56  CD         1.8820   10.1110    3.9040 C.3   140  ARG140      0.2205
     57  NE         1.5380    8.8530    4.5640 N.pl3 140  ARG140     -0.0865
     58  CZ         2.2810    8.2750    5.5060 C.cat 140  ARG140      0.5346
     59  NH1        3.4160    8.8360    5.9010 N.pl3 140  ARG140      0.1354
     60  NH2        1.8810    7.1410    6.0650 N.pl3 140  ARG140      0.1354
     61  N         -5.3700   10.9070    9.5330 N.3   158  GLU158     -0.1231
     62  CA        -4.0580   10.9990   10.1730 C.3   158  GLU158      0.1699
     63  C         -2.9230   11.0820    9.1580 C.2   158  GLU158      0.2592
     64  O         -1.8110   11.5000    9.4920 O.2   158  GLU158     -0.2718
     65  CB        -3.8290    9.7870   11.0800 C.3   158  GLU158      0.0402
     66  CG        -4.8140    9.6630   12.2250 C.3   158  GLU158      0.1161
     67  CD        -4.5050   10.6100   13.3690 C.2   158  GLU158      0.3649
     68  OE1       -3.6390   11.4940   13.1980 O.co2 158  GLU158     -0.2457
     69  OE2       -5.1300   10.4690   14.4430 O.co2 158  GLU158     -0.2457
     70  N         -3.1990   10.6710    7.9250 N.am  159  THR159     -0.1953
     71  CA        -2.1980   10.6950    6.8660 C.3   159  THR159      0.1897
     72  C         -2.4840   11.7690    5.8210 C.2   159  THR159      0.2313
     73  O         -2.0260   11.6690    4.6800 O.2   159  THR159     -0.2863
     74  CB        -2.1170    9.3470    6.1350 C.3   159  THR159      0.1794
     75  OG1       -3.4050    9.0190    5.5980 O.3   159  THR159     -0.2208
     76  CG2       -1.6670    8.2490    7.0800 C.3   159  THR159      0.0378
     77  N         11.7680    7.7230   13.9340 N.3   192  HIS192     -0.1226
     78  CA        10.3590    7.5060   14.2800 C.3   192  HIS192      0.1752
     79  C         10.2400    6.3720   15.3140 C.2   192  HIS192      0.2597
     80  O         11.2330    5.7580   15.6850 O.2   192  HIS192     -0.2718
     81  CB         9.5500    7.1210   13.0250 C.3   192  HIS192      0.0759
     82  CG         9.3520    8.2430   12.0500 C.ar  192  HIS192      0.0818
     83  ND1        8.1250    8.8330   11.8780 N.ar  192  HIS192     -0.2268
     84  CD2       10.2550    8.8340   11.2280 C.ar  192  HIS192      0.1154
     85  CE1        8.2970    9.7670   10.9620 C.ar  192  HIS192      0.1986
     86  NE2        9.5690    9.8120   10.5360 N.ar  192  HIS192     -0.2212
     87  N          9.0230    6.1280   15.7870 N.am  193  SER193     -0.1938
     88  CA         8.6870    4.8630   16.4650 C.3   193  SER193      0.2055
     89  C          7.2390    4.5610   16.1050 C.2   193  SER193      0.2643
     90  O          6.5310    5.4470   15.6300 O.2   193  SER193     -0.2714
     91  CB         8.8330    4.9980   17.9840 C.3   193  SER193      0.2130
     92  OG         7.7600    5.7280   18.5660 O.3   193  SER193     -0.2179
     93  N          6.7760    3.3270   16.2960 N.am  194  TYR194     -0.1959
     94  CA         7.5630    2.1850   16.7480 C.3   194  TYR194      0.1771
     95  C          7.4540    1.1190   15.6580 C.2   194  TYR194      0.2620
     96  O          6.7580    1.3150   14.6650 O.2   194  TYR194     -0.2715
     97  CB         6.9450    1.6250   18.0280 C.3   194  TYR194      0.0574
     98  CG         5.4760    1.2840   17.8510 C.ar  194  TYR194     -0.0198
     99  CD1        4.4930    2.2570   18.0010 C.ar  194  TYR194     -0.0009
    100  CD2        5.0760    0.0060   17.4740 C.ar  194  TYR194     -0.0009
    101  CE1        3.1560    1.9760   17.7730 C.ar  194  TYR194      0.0417
    102  CE2        3.7420   -0.2890   17.2440 C.ar  194  TYR194      0.0417
    103  CZ         2.7870    0.6990   17.3920 C.ar  194  TYR194      0.1957
    104  OH         1.4640    0.4190   17.1460 O.3   194  TYR194     -0.2866
    105  N          8.1420   -0.0010   15.8800 N.am  195  SER195     -0.1950
    106  CA         7.9520   -1.2760   15.1630 C.3   195  SER195      0.1924
    107  C          9.2960   -1.9220   14.8210 C.2   195  SER195      0.2314
    108  O          9.3420   -3.0050   14.2330 O.2   195  SER195     -0.2863
    109  CB         7.1270   -1.1030   13.8750 C.3   195  SER195      0.2116
    110  OG         7.8730   -0.4770   12.8530 O.3   195  SER195     -0.2180
    111  N         14.1600    1.5070    7.4140 N.3   199  LEU199     -0.1245
    112  CA        13.5990    1.6300    6.0760 C.3   199  LEU199      0.1561
    113  C         14.4970    2.4920    5.1970 C.2   199  LEU199      0.2260
    114  O         15.1310    3.4320    5.6720 O.2   199  LEU199     -0.2867
    115  CB        12.1990    2.2550    6.1430 C.3   199  LEU199      0.0270
    116  CG        11.2050    1.6330    7.1300 C.3   199  LEU199      0.0019
    117  CD1        9.9560    2.5030    7.2130 C.3   199  LEU199      0.0001
    118  CD2       10.8480    0.2200    6.6960 C.3   199  LEU199      0.0001
    119  N          9.1700    4.5370   -0.7440 N.3   203  SER203     -0.1217
    120  CA         7.8660    4.3380   -0.1300 C.3   203  SER203      0.1889
    121  C          6.7300    4.8110   -1.0350 C.2   203  SER203      0.2288
    122  O          5.6140    4.3020   -0.9470 O.2   203  SER203     -0.2866
    123  CB         7.7980    5.0770    1.2080 C.3   203  SER203      0.2089
    124  OG         8.7370    4.5380    2.1180 O.3   203  SER203     -0.2183
    125  N         10.6890    1.0010    1.9250 N.3   239  GLY239     -0.1225
    126  CA         9.5450    1.3600    2.7450 C.3   239  GLY239      0.1811
    127  C          8.2340    0.7140    2.3400 C.2   239  GLY239      0.2280
    128  O          7.5150    0.1770    3.1810 O.2   239  GLY239     -0.2866
    129  N          6.8900   -1.9480    5.2770 N.3   243  ILE243     -0.1231
    130  CA         5.8510   -1.4700    6.1700 C.3   243  ILE243      0.1692
    131  C          4.5470   -1.2300    5.3990 C.2   243  ILE243      0.2592
    132  O          3.6310   -2.0500    5.4600 O.2   243  ILE243     -0.2718
    133  CB         6.3320   -0.1890    6.9050 C.3   243  ILE243      0.0266
    134  CG1        5.2110    0.3810    7.7650 C.3   243  ILE243      0.0019
    135  CG2        6.8650    0.8120    5.9130 C.3   243  ILE243      0.0020
    136  CD1        4.8230   -0.5140    8.9060 C.3   243  ILE243      0.0001
    137  N          4.4660   -0.1230    4.6670 N.am  244  TYR244     -0.1976
    138  CA         3.3670    0.1150    3.7300 C.3   244  TYR244      0.1639
    139  C          3.6730    1.3160    2.8400 C.2   244  TYR244      0.2290
    140  O          4.5500    2.1240    3.1480 O.2   244  TYR244     -0.2864
    141  CB         2.0420    0.3440    4.4780 C.3   244  TYR244      0.0560
    142  CG         2.1150    1.3370    5.6190 C.ar  244  TYR244     -0.0198
    143  CD1        2.2150    2.7040    5.3780 C.ar  244  TYR244     -0.0009
    144  CD2        2.0970    0.9060    6.9410 C.ar  244  TYR244     -0.0009
    145  CE1        2.3010    3.6080    6.4210 C.ar  244  TYR244      0.0417
    146  CE2        2.1840    1.8070    7.9910 C.ar  244  TYR244      0.0417
    147  CZ         2.2880    3.1550    7.7240 C.ar  244  TYR244      0.1957
    148  OH         2.4100    4.0530    8.7660 O.3   244  TYR244     -0.2866
    149  N          3.6700    4.9230    1.3860 N.3   246  ALA246     -0.1245
    150  CA         3.4410    6.2240    1.9960 C.3   246  ALA246      0.1562
    151  C          4.1730    7.3050    1.2180 C.2   246  ALA246      0.2260
    152  O          5.3520    7.5650    1.4500 O.2   246  ALA246     -0.2867
    153  CB         3.9130    6.2110    3.4430 C.3   246  ALA246      0.0290
    154  N          7.2270   11.1860    1.7580 N.3   249  GLY249     -0.1225
    155  CA         8.1050   11.0300    2.9050 C.3   249  GLY249      0.1811
    156  C          9.4160   11.7770    2.7590 C.2   249  GLY249      0.2280
    157  O          9.9170   11.9630    1.6500 O.2   249  GLY249     -0.2866
    158  N         12.4050   10.8970    3.7230 N.3   251  ASP251     -0.1239
    159  CA        13.5360   10.0540    3.3590 C.3   251  ASP251      0.1674
    160  C         13.6110    9.8180    1.8480 C.2   251  ASP251      0.2266
    161  O         14.6890    9.9090    1.2620 O.2   251  ASP251     -0.2867
    162  CB        13.4880    8.7150    4.1150 C.3   251  ASP251      0.1410
    163  CG        12.2040    7.9440    3.8830 C.2   251  ASP251      0.3668
    164  OD1       11.2170    8.5360    3.3960 O.co2 251  ASP251     -0.2456
    165  OD2       12.1840    6.7340    4.2000 O.co2 251  ASP251     -0.2456
    166  N         15.0150    5.7120    7.3340 N.3   264  THR264     -0.1218
    167  CA        14.0460    5.9470    8.4000 C.3   264  THR264      0.1862
    168  C         14.1960    4.8630    9.4590 C.2   264  THR264      0.2287
    169  O         14.1520    3.6780    9.1480 O.2   264  THR264     -0.2866
    170  CB        12.5950    5.8900    7.8740 C.3   264  THR264      0.1770
    171  OG1       12.3860    6.9380    6.9210 O.3   264  THR264     -0.2211
    172  CG2       11.6040    6.0590    9.0160 C.3   264  THR264      0.0375
    173  N         12.5990    3.0860   12.8470 N.3   266  GLU266     -0.1245
    174  CA        11.4260    2.9010   13.6950 C.3   266  GLU266      0.1567
    175  C         11.8910    2.1940   14.9610 C.2   266  GLU266      0.2260
    176  O         12.3130    1.0370   14.9030 O.2   266  GLU266     -0.2867
    177  CB        10.3810    2.0400   12.9760 C.3   266  GLU266      0.0388
    178  CG         9.8140    2.6780   11.7220 C.3   266  GLU266      0.1160
    179  CD         8.8360    3.8030   12.0220 C.2   266  GLU266      0.3649
    180  OE1        8.4120    3.9350   13.1850 O.co2 266  GLU266     -0.2457
    181  OE2        8.4900    4.5530   11.0830 O.co2 266  GLU266     -0.2457
    182  N          3.3540    3.5760   21.2200 N.3   275  PHE275     -0.1241
    183  CA         3.8530    4.9450   21.3910 C.3   275  PHE275      0.1605
    184  C          4.1190    5.3000   22.8500 C.2   275  PHE275      0.2264
    185  O          4.9320    6.1790   23.1440 O.2   275  PHE275     -0.2867
    186  CB         2.8560    5.9490   20.8180 C.3   275  PHE275      0.0534
    187  CG         2.5640    5.7500   19.3670 C.ar  275  PHE275     -0.0203
    188  CD1        3.5710    5.8380   18.4280 C.ar  275  PHE275     -0.0042
    189  CD2        1.2830    5.4380   18.9450 C.ar  275  PHE275     -0.0042
    190  CE1        3.3100    5.6130   17.0800 C.ar  275  PHE275     -0.0003
    191  CE2        1.0130    5.2140   17.6110 C.ar  275  PHE275     -0.0003
    192  CZ         2.0270    5.3000   16.6750 C.ar  275  PHE275     -0.0000
@<TRIPOS>BOND
     1   121   122    2
     2   121   120    1
     3   119   120    1
     4   120   123    1
     5   123   124    1
     6   151   152    2
     7   151   150    1
     8   161   160    2
     9   149   150    1
    10   157   156    2
    11   154   155    1
    12   160   159    1
    13    53    52    2
    14   125   126    1
    15   150   153    1
    16   127   126    1
    17   127   128    2
    18   156   155    1
    19   139   140    2
    20   139   138    1
    21    52    51    1
    22   159   158    1
    23   159   162    1
    24   164   163   ar
    25    51    54    1
    26    51    50    1
    27   138   141    1
    28   138   137    1
    29   163   162    1
    30   163   165   ar
    31    56    57    1
    32    56    55    1
    33    54    55    1
    34   141   142    1
    35    57    58    2
    36   137   131   am
    37    73    72    2
    38    45    44    2
    39    50    44   am
    40   113   114    2
    41   113   112    1
    42   129   130    1
    43    44    43    1
    44   143   142   ar
    45   143   145   ar
    46   131   132    2
    47   131   130    1
    48    58    59    1
    49    58    60    1
    50    75    74    1
    51   142   144   ar
    52    72    71    1
    53   135   133    1
    54   112   115    1
    55   112   111    1
    56    74    71    1
    57    74    76    1
    58   115   116    1
    59   130   133    1
    60    48    47    2
    61   145   147   ar
    62    43    42    1
    63    43    46    1
    64   118   116    1
    65    47    49   am
    66    47    46    1
    67    71    70    1
    68   133   134    1
    69   171   170    1
    70   144   146   ar
    71   116   117    1
    72   166   167    1
    73   147   146   ar
    74   147   148    1
    75   134   136    1
    76   170   167    1
    77   170   172    1
    78    70    63   am
    79   167   168    1
    80   169   168    2
    81    63    64    2
    82    63    62    1
    83    61    62    1
    84    41    39    1
    85    62    65    1
    86    86    85   ar
    87    86    84   ar
    88    10     9   ar
    89    10     8   ar
    90    39    38    2
    91    39    40    1
    92     9     7   ar
    93    38    37    1
    94    85    83   ar
    95    65    66    1
    96   181   179   ar
    97    84    82   ar
    98   178   179    1
    99   178   177    1
   100    83    82   ar
   101     8     6   ar
   102   179   180   ar
   103    82    81    1
   104     7     6   ar
   105    37    36    1
   106    66    67    1
   107     6     5    1
   108   173   174    1
   109   110   109    1
   110   177   174    1
   111    81    78    1
   112    36    35    1
   113    68    67   ar
   114    67    69   ar
   115   174   175    1
   116   109   106    1
   117    77    78    1
   118     1     2    1
   119     5     2    1
   120   108   107    2
   121    34    33    2
   122    78    79    1
   123    35    32    1
   124    33    32    1
   125    30    28   ar
   126     2     3    1
   127    96    95    2
   128   107   106    1
   129    29    28   ar
   130   176   175    2
   131    21    19    1
   132   106   105    1
   133    28    27    1
   134    32    31    1
   135    79    80    2
   136    79    87   am
   137    90    89    2
   138    95   105   am
   139    95    94    1
   140    87    88    1
   141    19    18    2
   142    19    20    1
   143    89    93   am
   144    89    88    1
   145     3     4    2
   146    93    94    1
   147    88    91    1
   148    18    17    1
   149   192   190   ar
   150   192   191   ar
   151    27    26    1
   152    94    97    1
   153   190   188   ar
   154   104   103    1
   155   102   103   ar
   156   102   100   ar
   157   103   101   ar
   158   100    98   ar
   159    26    23    1
   160   191   189   ar
   161   101    99   ar
   162    17    16    1
   163    98    99   ar
   164    98    97    1
   165    91    92    1
   166    16    15    1
   167   188   187   ar
   168    11    12    1
   169   189   187   ar
   170    23    22    1
   171    23    24    1
   172    22    13   am
   173   187   186    1
   174    25    24    2
   175    15    12    1
   176    12    13    1
   177    13    14    2
   178   186   183    1
   179   182   183    1
   180   183   184    1
   181   184   185    2
