@<TRIPOS>MOLECULE
tmp/2pj7B00.pdb
 204 194 0 0 0
SMALL
GASTEIGER

@<TRIPOS>ATOM
      1  N         26.1440   19.9190   91.8530 N.3    64  HIS64      -0.1241
      2  CA        25.1810   20.9080   91.4130 C.3    64  HIS64       0.1621
      3  C         25.7400   21.7090   90.2440 C.2    64  HIS64       0.2264
      4  O         26.8330   22.2640   90.3290 O.2    64  HIS64      -0.2867
      5  CB        24.8240   21.8270   92.5860 C.3    64  HIS64       0.0745
      6  CG        23.9650   21.1650   93.6210 C.ar   64  HIS64       0.0817
      7  ND1       24.1100   21.4320   94.9570 N.ar   64  HIS64      -0.2268
      8  CD2       22.9710   20.2590   93.4500 C.ar   64  HIS64       0.1154
      9  CE1       23.2080   20.6910   95.5720 C.ar   64  HIS64       0.1986
     10  NE2       22.4940   19.9610   94.7030 N.ar   64  HIS64      -0.2212
     11  N         25.3170   24.5140   88.4890 N.3    66  ARG66      -0.1231
     12  CA        25.6490   25.9350   88.4150 C.3    66  ARG66       0.1694
     13  C         26.8230   26.3420   89.2980 C.2    66  ARG66       0.2591
     14  O         27.3130   27.4680   89.2070 O.2    66  ARG66      -0.2718
     15  CB        24.4240   26.7760   88.7860 C.3    66  ARG66       0.0321
     16  CG        23.9190   26.5760   90.2180 C.3    66  ARG66       0.0489
     17  CD        22.4580   27.0040   90.3050 C.3    66  ARG66       0.2205
     18  NE        21.8640   26.8380   91.6310 N.pl3  66  ARG66      -0.0865
     19  CZ        20.5960   27.1320   91.9020 C.cat  66  ARG66       0.5346
     20  NH1       19.8140   27.5960   90.9380 N.pl3  66  ARG66       0.1354
     21  NH2       20.1070   26.9710   93.1270 N.pl3  66  ARG66       0.1354
     22  N         27.2730   25.4270   90.1520 N.am   67  GLU67      -0.1979
     23  CA        28.3230   25.7320   91.1210 C.3    67  GLU67       0.1602
     24  C         29.7200   25.5220   90.5180 C.2    67  GLU67       0.2287
     25  O         30.4840   24.6620   90.9560 O.2    67  GLU67      -0.2864
     26  CB        28.1140   24.8620   92.3810 C.3    67  GLU67       0.0415
     27  CG        26.8310   25.2350   93.1320 C.3    67  GLU67       0.1163
     28  CD        26.4420   24.2600   94.2390 C.2    67  GLU67       0.3649
     29  OE1       25.2600   24.2780   94.6370 O.co2  67  GLU67      -0.2457
     30  OE2       27.3030   23.4900   94.7110 O.co2  67  GLU67      -0.2457
     31  N         20.4210   23.5340   88.2050 N.3   122  ARG122     -0.1245
     32  CA        20.9620   22.9200   89.4150 C.3   122  ARG122      0.1563
     33  C         20.9740   21.3930   89.3270 C.2   122  ARG122      0.2260
     34  O         21.9780   20.7550   89.6300 O.2   122  ARG122     -0.2867
     35  CB        20.1290   23.3620   90.6260 C.3   122  ARG122      0.0307
     36  CG        20.3340   22.5440   91.9080 C.3   122  ARG122      0.0489
     37  CD        19.3960   23.0550   92.9930 C.3   122  ARG122      0.2205
     38  NE        19.4090   22.2480   94.2100 N.pl3 122  ARG122     -0.0865
     39  CZ        20.2440   22.4380   95.2260 C.cat 122  ARG122      0.5346
     40  NH1       21.1460   23.4080   95.1740 N.pl3 122  ARG122      0.1354
     41  NH2       20.1690   21.6640   96.3010 N.pl3 122  ARG122      0.1354
     42  N         21.8190   15.9090   95.4740 N.3   139  ASN139     -0.1225
     43  CA        22.1000   15.9650   96.9040 C.3   139  ASN139      0.1785
     44  C         20.8400   15.8210   97.7620 C.2   139  ASN139      0.2597
     45  O         20.8640   16.1120   98.9620 O.2   139  ASN139     -0.2718
     46  CB        22.8300   17.2640   97.2580 C.3   139  ASN139      0.1169
     47  CG        23.7720   17.0980   98.4410 C.2   139  ASN139      0.2627
     48  OD1       24.3390   16.0210   98.6610 O.2   139  ASN139     -0.2716
     49  ND2       23.9450   18.1650   99.2100 N.am  139  ASN139     -0.0877
     50  N         19.7460   15.3730   97.1440 N.am  140  ARG140     -0.1979
     51  CA        18.5810   14.8780   97.8780 C.3   140  ARG140      0.1597
     52  C         18.2800   13.4240   97.5000 C.2   140  ARG140      0.2287
     53  O         17.2450   12.8860   97.8850 O.2   140  ARG140     -0.2864
     54  CB        17.3350   15.7210   97.5720 C.3   140  ARG140      0.0334
     55  CG        17.4770   17.2070   97.8570 C.3   140  ARG140      0.0492
     56  CD        17.5730   17.4940   99.3440 C.3   140  ARG140      0.2205
     57  NE        17.6250   18.9340   99.5930 N.pl3 140  ARG140     -0.0865
     58  CZ        18.7210   19.6730   99.4740 C.cat 140  ARG140      0.5346
     59  NH1       19.8700   19.1140   99.1150 N.pl3 140  ARG140      0.1354
     60  NH2       18.6650   20.9820   99.6880 N.pl3 140  ARG140      0.1354
     61  N         13.4630   22.4870   92.7490 N.3   158  GLU158     -0.1231
     62  CA        14.9220   22.4490   92.7260 C.3   158  GLU158      0.1699
     63  C         15.4910   21.3900   93.6620 C.2   158  GLU158      0.2592
     64  O         16.6370   20.9680   93.5040 O.2   158  GLU158     -0.2718
     65  CB        15.4980   23.8110   93.1170 C.3   158  GLU158      0.0402
     66  CG        15.1990   24.9220   92.1280 C.3   158  GLU158      0.1161
     67  CD        15.8600   24.7040   90.7810 C.2   158  GLU158      0.3649
     68  OE1       16.4510   23.6250   90.5690 O.co2 158  GLU158     -0.2457
     69  OE2       15.7860   25.6180   89.9320 O.co2 158  GLU158     -0.2457
     70  N         14.6950   20.9740   94.6400 N.am  159  THR159     -0.1953
     71  CA        15.1330   19.9590   95.5900 C.3   159  THR159      0.1897
     72  C         14.3490   18.6570   95.4420 C.2   159  THR159      0.2313
     73  O         14.1870   17.9030   96.4040 O.2   159  THR159     -0.2863
     74  CB        14.9910   20.4560   97.0370 C.3   159  THR159      0.1794
     75  OG1       13.6140   20.7300   97.3150 O.3   159  THR159     -0.2208
     76  CG2       15.8080   21.7220   97.2450 C.3   159  THR159      0.0378
     77  N         30.9890   22.1040   97.1540 N.3   192  HIS192     -0.1226
     78  CA        29.8700   22.8970   96.6530 C.3   192  HIS192      0.1752
     79  C         30.2430   24.3820   96.7260 C.2   192  HIS192      0.2597
     80  O         31.2810   24.7240   97.2760 O.2   192  HIS192     -0.2718
     81  CB        28.6210   22.6630   97.5170 C.3   192  HIS192      0.0759
     82  CG        28.0020   21.3080   97.3520 C.ar  192  HIS192      0.0818
     83  ND1       26.8230   21.1360   96.6680 N.ar  192  HIS192     -0.2268
     84  CD2       28.4160   20.1120   97.8400 C.ar  192  HIS192      0.1154
     85  CE1       26.5410   19.8490   96.7530 C.ar  192  HIS192      0.1986
     86  NE2       27.4740   19.1840   97.4540 N.ar  192  HIS192     -0.2212
     87  N         29.3940   25.2440   96.1650 N.am  193  SER193     -0.1938
     88  CA        29.4100   26.6870   96.4580 C.3   193  SER193      0.2055
     89  C         27.9560   27.1700   96.5110 C.2   193  SER193      0.2643
     90  O         27.0630   26.4770   96.0240 O.2   193  SER193     -0.2714
     91  CB        30.1610   27.4450   95.3620 C.3   193  SER193      0.2130
     92  OG        29.3900   27.4900   94.1760 O.3   193  SER193     -0.2179
     93  N         27.6860   28.3320   97.1030 N.am  194  TYR194     -0.1959
     94  CA        28.6580   29.1830   97.7810 C.3   194  TYR194      0.1771
     95  C         28.1530   29.3420   99.2140 C.2   194  TYR194      0.2620
     96  O         27.0530   28.8980   99.5210 O.2   194  TYR194     -0.2715
     97  CB        28.6960   30.5560   97.1020 C.3   194  TYR194      0.0574
     98  CG        27.3300   31.2000   96.9960 C.ar  194  TYR194     -0.0198
     99  CD1       26.4750   30.8860   95.9470 C.ar  194  TYR194     -0.0009
    100  CD2       26.8850   32.0950   97.9580 C.ar  194  TYR194     -0.0009
    101  CE1       25.2170   31.4410   95.8610 C.ar  194  TYR194      0.0417
    102  CE2       25.6280   32.6540   97.8830 C.ar  194  TYR194      0.0417
    103  CZ        24.7960   32.3240   96.8340 C.ar  194  TYR194      0.1957
    104  OH        23.5310   32.8580   96.7720 O.3   194  TYR194     -0.2866
    105  N         28.9580   29.9750  100.0690 N.am  195  SER195     -0.1950
    106  CA        28.5630   30.3870  101.4240 C.3   195  SER195      0.1924
    107  C         29.7510   30.4170  102.3820 C.2   195  SER195      0.2314
    108  O         29.6370   30.9440  103.4860 O.2   195  SER195     -0.2863
    109  CB        27.4860   29.4610  102.0150 C.3   195  SER195      0.2116
    110  OG        26.1860   29.9620  101.7480 O.3   195  SER195     -0.2180
    111  N         30.7060   22.0160  106.4980 N.3   199  LEU199     -0.1231
    112  CA        29.5980   21.3110  107.1250 C.3   199  LEU199      0.1693
    113  C         29.9390   19.8420  107.3440 C.2   199  LEU199      0.2592
    114  O         30.7270   19.2570  106.6060 O.2   199  LEU199     -0.2718
    115  CB        28.3450   21.3970  106.2560 C.3   199  LEU199      0.0284
    116  CG        27.9000   22.7770  105.7750 C.3   199  LEU199      0.0019
    117  CD1       26.6470   22.6200  104.9380 C.3   199  LEU199      0.0001
    118  CD2       27.6490   23.6980  106.9650 C.3   199  LEU199      0.0001
    119  N         29.3300   19.2560  108.3680 N.am  200  TYR200     -0.1976
    120  CA        29.4180   17.8220  108.5960 C.3   200  TYR200      0.1639
    121  C         28.0580   17.3500  109.0980 C.2   200  TYR200      0.2290
    122  O         27.1630   18.1650  109.3230 O.2   200  TYR200     -0.2864
    123  CB        30.5260   17.5170  109.6150 C.3   200  TYR200      0.0560
    124  CG        30.3830   18.2290  110.9440 C.ar  200  TYR200     -0.0198
    125  CD1       29.6010   17.6940  111.9600 C.ar  200  TYR200     -0.0009
    126  CD2       31.0720   19.4050  111.2000 C.ar  200  TYR200     -0.0009
    127  CE1       29.5130   18.3090  113.1910 C.ar  200  TYR200      0.0417
    128  CE2       30.9900   20.0270  112.4340 C.ar  200  TYR200      0.0417
    129  CZ        30.2120   19.4720  113.4230 C.ar  200  TYR200      0.1957
    130  OH        30.1460   20.0780  114.6570 O.3   200  TYR200     -0.2866
    131  N         22.4120   16.5070  108.2510 N.3   203  SER203     -0.1217
    132  CA        21.5100   17.4330  107.5880 C.3   203  SER203      0.1889
    133  C         20.0940   16.8830  107.4440 C.2   203  SER203      0.2288
    134  O         19.1610   17.6430  107.1980 O.2   203  SER203     -0.2866
    135  CB        22.0650   17.8150  106.2100 C.3   203  SER203      0.2089
    136  OG        23.3150   18.4690  106.3370 O.3   203  SER203     -0.2183
    137  N         25.2310   20.2080  109.3620 N.3   239  GLY239     -0.1225
    138  CA        24.4890   20.7490  108.2380 C.3   239  GLY239      0.1811
    139  C         23.1390   21.3630  108.5690 C.2   239  GLY239      0.2280
    140  O         22.8400   22.4780  108.1470 O.2   239  GLY239     -0.2866
    141  N         23.0590   25.4540  107.9760 N.3   243  ILE243     -0.1231
    142  CA        22.3920   25.9890  106.7920 C.3   243  ILE243      0.1692
    143  C         20.8790   25.8100  106.8810 C.2   243  ILE243      0.2592
    144  O         20.1600   26.7330  107.2590 O.2   243  ILE243     -0.2718
    145  CB        22.9000   25.3100  105.5020 C.3   243  ILE243      0.0266
    146  CG1       24.3940   25.5810  105.3230 C.3   243  ILE243      0.0019
    147  CG2       22.1450   25.8490  104.3000 C.3   243  ILE243      0.0020
    148  CD1       24.9100   25.2440  103.9360 C.3   243  ILE243      0.0001
    149  N         20.4030   24.6230  106.5230 N.am  244  TYR244     -0.1976
    150  CA        19.0120   24.2390  106.7490 C.3   244  TYR244      0.1639
    151  C         18.9110   22.7260  106.6290 C.2   244  TYR244      0.2290
    152  O         19.8110   22.0770  106.0950 O.2   244  TYR244     -0.2864
    153  CB        18.0830   24.9150  105.7240 C.3   244  TYR244      0.0560
    154  CG        18.6140   24.8920  104.3100 C.ar  244  TYR244     -0.0198
    155  CD1       18.7920   23.6920  103.6330 C.ar  244  TYR244     -0.0009
    156  CD2       18.9890   26.0690  103.6700 C.ar  244  TYR244     -0.0009
    157  CE1       19.3360   23.6640  102.3640 C.ar  244  TYR244      0.0417
    158  CE2       19.5350   26.0490  102.4020 C.ar  244  TYR244      0.0417
    159  CZ        19.7110   24.8420  101.7550 C.ar  244  TYR244      0.1957
    160  OH        20.2980   24.8100  100.5100 O.3   244  TYR244     -0.2866
    161  N         18.1710   19.1850  105.1430 N.3   246  ALA246     -0.1245
    162  CA        18.1620   18.6990  103.7720 C.3   246  ALA246      0.1562
    163  C         18.4950   17.2190  103.7910 C.2   246  ALA246      0.2260
    164  O         19.6540   16.8470  103.9400 O.2   246  ALA246     -0.2867
    165  CB        19.1840   19.4550  102.9420 C.3   246  ALA246      0.0290
    166  N         21.3880   13.7180  101.5040 N.3   249  GLY249     -0.1225
    167  CA        22.7020   14.2270  101.1510 C.3   249  GLY249      0.1811
    168  C         23.7700   13.1510  101.1470 C.2   249  GLY249      0.2280
    169  O         23.7040   12.2020  101.9280 O.2   249  GLY249     -0.2866
    170  N         26.9650   13.3830  101.9330 N.3   251  ASP251     -0.1239
    171  CA        27.8420   13.4100  103.0920 C.3   251  ASP251      0.1674
    172  C         27.2080   12.6740  104.2750 C.2   251  ASP251      0.2266
    173  O         27.8870   11.9310  104.9910 O.2   251  ASP251     -0.2867
    174  CB        28.1850   14.8560  103.4690 C.3   251  ASP251      0.1410
    175  CG        26.9630   15.6880  103.8210 C.2   251  ASP251      0.3668
    176  OD1       25.8230   15.2730  103.5170 O.co2 251  ASP251     -0.2456
    177  OD2       27.1510   16.7770  104.4060 O.co2 251  ASP251     -0.2456
    178  N         31.0750   18.5610  103.9210 N.3   264  THR264     -0.1218
    179  CA        30.7090   19.3470  102.7490 C.3   264  THR264      0.1862
    180  C         31.3900   20.7090  102.8450 C.2   264  THR264      0.2287
    181  O         31.2770   21.3950  103.8570 O.2   264  THR264     -0.2866
    182  CB        29.1830   19.5650  102.6720 C.3   264  THR264      0.1770
    183  OG1       28.5260   18.2980  102.5580 O.3   264  THR264     -0.2211
    184  CG2       28.8180   20.4270  101.4640 C.3   264  THR264      0.0375
    185  N         31.4950   24.5150  101.3060 N.3   266  GLU266     -0.1245
    186  CA        30.8490   25.5380  100.4850 C.3   266  GLU266      0.1567
    187  C         31.8760   26.6400  100.2460 C.2   266  GLU266      0.2260
    188  O         32.2570   27.3430  101.1770 O.2   266  GLU266     -0.2867
    189  CB        29.6320   26.1260  101.2130 C.3   266  GLU266      0.0388
    190  CG        28.4690   25.1590  101.4080 C.3   266  GLU266      0.1160
    191  CD        27.7540   24.8390  100.1100 C.2   266  GLU266      0.3649
    192  OE1       28.0740   25.4650   99.0750 O.co2 266  GLU266     -0.2457
    193  OE2       26.8710   23.9560  100.1280 O.co2 266  GLU266     -0.2457
    194  N         26.8530   32.1080   92.5530 N.3   275  PHE275     -0.1241
    195  CA        27.2860   31.0330   91.6690 C.3   275  PHE275      0.1605
    196  C         28.1600   31.5440   90.5280 C.2   275  PHE275      0.2264
    197  O         28.9380   30.7830   89.9540 O.2   275  PHE275     -0.2867
    198  CB        26.0710   30.3060   91.0760 C.3   275  PHE275      0.0534
    199  CG        25.1640   29.6970   92.1060 C.ar  275  PHE275     -0.0203
    200  CD1       25.6330   28.7220   92.9750 C.ar  275  PHE275     -0.0042
    201  CD2       23.8420   30.1020   92.2100 C.ar  275  PHE275     -0.0042
    202  CE1       24.8030   28.1650   93.9270 C.ar  275  PHE275     -0.0003
    203  CE2       23.0030   29.5510   93.1590 C.ar  275  PHE275     -0.0003
    204  CZ        23.4820   28.5780   94.0230 C.ar  275  PHE275     -0.0000
@<TRIPOS>BOND
     1    31    32    1
     2    12    11    1
     3    12    15    1
     4    12    13    1
     5    15    16    1
     6    14    13    2
     7    13    22   am
     8    33    32    1
     9    33    34    2
    10    32    35    1
    11    69    67   ar
    12   197   196    2
    13    22    23    1
    14    16    17    1
    15     3     4    2
    16     3     2    1
    17    17    18    1
    18    24    25    2
    19    24    23    1
    20   196   195    1
    21    68    67   ar
    22    35    36    1
    23    67    66    1
    24    20    19    1
    25   198   195    1
    26   198   199    1
    27    23    26    1
    28     2     1    1
    29     2     5    1
    30    18    19    2
    31   195   194    1
    32    19    21    1
    33    36    37    1
    34   199   201   ar
    35   199   200   ar
    36    66    65    1
    37   201   203   ar
    38    26    27    1
    39     5     6    1
    40    62    61    1
    41    62    65    1
    42    62    63    1
    43   200   202   ar
    44    37    38    1
    45    27    28    1
    46   203   204   ar
    47     8     6   ar
    48     8    10   ar
    49    64    63    2
    50     6     7   ar
    51    63    70   am
    52   202   204   ar
    53    92    91    1
    54    38    39    2
    55    28    29   ar
    56    28    30   ar
    57    70    71    1
    58    10     9   ar
    59     7     9   ar
    60    40    39    1
    61    39    41    1
    62    91    88    1
    63    72    71    1
    64    72    73    2
    65    42    43    1
    66    71    74    1
    67   101    99   ar
    68   101   103   ar
    69    99    98   ar
    70    90    89    2
    71    87    88    1
    72    87    79   am
    73    88    89    1
    74    89    93   am
    75    78    79    1
    76    78    77    1
    77    78    81    1
    78    83    85   ar
    79    83    82   ar
    80    79    80    2
    81    85    86   ar
    82   104   103    1
    83   103   102   ar
    84    43    46    1
    85    43    44    1
    86    98    97    1
    87    98   100   ar
    88    74    76    1
    89    74    75    1
    90    97    94    1
    91    93    94    1
    92    50    44   am
    93    50    51    1
    94    46    47    1
    95    82    81    1
    96    82    84   ar
    97    86    84   ar
    98    52    51    1
    99    52    53    2
   100    54    55    1
   101    54    51    1
   102    44    45    2
   103    94    95    1
   104    55    56    1
   105   102   100   ar
   106    47    48    2
   107    47    49   am
   108   192   191   ar
   109    59    58    1
   110    95    96    2
   111    95   105   am
   112    56    57    1
   113    58    57    2
   114    58    60    1
   115   105   106    1
   116   191   193   ar
   117   191   190    1
   118   187   186    1
   119   187   188    2
   120   186   189    1
   121   186   185    1
   122   160   159    1
   123   168   167    1
   124   168   169    2
   125   167   166    1
   126   189   190    1
   127   106   109    1
   128   106   107    1
   129   184   182    1
   130   110   109    1
   131   159   157   ar
   132   159   158   ar
   133   170   171    1
   134   157   155   ar
   135   107   108    2
   136   158   156   ar
   137   183   182    1
   138   182   179    1
   139   179   180    1
   140   179   178    1
   141   180   181    2
   142   165   162    1
   143   171   174    1
   144   171   172    1
   145   174   175    1
   146   176   175   ar
   147   155   154   ar
   148   156   154   ar
   149   162   163    1
   150   162   161    1
   151   163   164    2
   152   175   177   ar
   153   148   146    1
   154   172   173    2
   155   147   145    1
   156   154   153    1
   157   117   116    1
   158   146   145    1
   159   145   142    1
   160   153   150    1
   161   116   115    1
   162   116   118    1
   163   152   151    2
   164   135   136    1
   165   135   132    1
   166   115   112    1
   167   111   112    1
   168   149   150    1
   169   149   143   am
   170   114   113    2
   171   151   150    1
   172   142   143    1
   173   142   141    1
   174   143   144    2
   175   112   113    1
   176   134   133    2
   177   113   119   am
   178   133   132    1
   179   132   131    1
   180   140   139    2
   181   138   139    1
   182   138   137    1
   183   119   120    1
   184   120   121    1
   185   120   123    1
   186   121   122    2
   187   123   124    1
   188   124   126   ar
   189   124   125   ar
   190   126   128   ar
   191   125   127   ar
   192   128   129   ar
   193   127   129   ar
   194   129   130    1
