@<TRIPOS>MOLECULE
tmp/2pj8C00.pdb
 183 172 0 0 0
SMALL
GASTEIGER

@<TRIPOS>ATOM
      1  N         -5.4910   37.3730  131.3030 N.3    64  HIS64      -0.1241
      2  CA        -6.4030   38.3290  131.9180 C.3    64  HIS64       0.1621
      3  C         -7.3560   38.9220  130.8930 C.2    64  HIS64       0.2264
      4  O         -6.9310   39.4760  129.8840 O.2    64  HIS64      -0.2867
      5  CB        -5.6080   39.4370  132.6030 C.3    64  HIS64       0.0745
      6  CG        -4.8990   38.9860  133.8410 C.ar   64  HIS64       0.0817
      7  ND1       -3.6090   39.3580  134.1050 N.ar   64  HIS64      -0.2268
      8  CD2       -5.3550   38.2000  134.8470 C.ar   64  HIS64       0.1154
      9  CE1       -3.3050   38.8000  135.2610 C.ar   64  HIS64       0.1986
     10  NE2       -4.3300   38.0880  135.7500 N.ar   64  HIS64      -0.2212
     11  N         -9.4410   41.3560  130.2760 N.3    66  ARG66      -0.1231
     12  CA        -9.5640   42.7250  129.7890 C.3    66  ARG66       0.1694
     13  C         -8.3460   43.2110  129.0060 C.2    66  ARG66       0.2591
     14  O         -8.3770   44.2880  128.4200 O.2    66  ARG66      -0.2718
     15  CB        -9.8210   43.6730  130.9630 C.3    66  ARG66       0.0321
     16  CG        -8.7140   43.6970  131.9960 C.3    66  ARG66       0.0489
     17  CD        -9.1770   44.3940  133.2620 C.3    66  ARG66       0.2205
     18  NE        -8.1270   44.4830  134.2720 N.pl3  66  ARG66      -0.0865
     19  CZ        -8.3410   44.8150  135.5410 C.cat  66  ARG66       0.5346
     20  NH1       -9.5710   45.0850  135.9600 N.pl3  66  ARG66       0.1354
     21  NH2       -7.3230   44.8960  136.3930 N.pl3  66  ARG66       0.1354
     22  N         -7.2680   42.4330  128.9990 N.am   67  GLU67      -0.1979
     23  CA        -6.0450   42.8720  128.3250 C.3    67  GLU67       0.1602
     24  C         -6.0730   42.4810  126.8450 C.2    67  GLU67       0.2287
     25  O         -5.2970   41.6430  126.3880 O.2    67  GLU67      -0.2864
     26  CB        -4.8150   42.2790  129.0310 C.3    67  GLU67       0.0415
     27  CG        -4.6510   42.8000  130.4660 C.3    67  GLU67       0.1163
     28  CD        -3.7150   41.9710  131.3310 C.2    67  GLU67       0.3649
     29  OE1       -3.8110   42.0990  132.5710 O.co2  67  GLU67      -0.2457
     30  OE2       -2.8860   41.2050  130.7880 O.co2  67  GLU67      -0.2457
     31  N        -11.3340   40.6450  134.8010 N.3   122  ARG122     -0.1245
     32  CA        -9.9340   40.2050  134.8450 C.3   122  ARG122      0.1563
     33  C         -9.8320   38.6880  135.0280 C.2   122  ARG122      0.2260
     34  O         -9.1240   38.0060  134.2830 O.2   122  ARG122     -0.2867
     35  CB        -9.2030   40.9060  136.0000 C.3   122  ARG122      0.0307
     36  CG        -7.7950   40.3760  136.3250 C.3   122  ARG122      0.0489
     37  CD        -7.2440   41.0660  137.5760 C.3   122  ARG122      0.2205
     38  NE        -5.9770   40.5210  138.0760 N.pl3 122  ARG122     -0.0865
     39  CZ        -4.7800   40.8510  137.5940 C.cat 122  ARG122      0.5346
     40  NH1       -4.6800   41.7120  136.5880 N.pl3 122  ARG122      0.1354
     41  NH2       -3.6790   40.3470  138.1400 N.pl3 122  ARG122      0.1354
     42  N         -3.2480   34.2560  137.1290 N.3   139  ASN139     -0.1225
     43  CA        -1.8220   34.4910  137.3370 C.3   139  ASN139      0.1785
     44  C         -1.4440   34.6190  138.8130 C.2   139  ASN139      0.2597
     45  O         -0.3820   35.1580  139.1500 O.2   139  ASN139     -0.2718
     46  CB        -1.3660   35.7350  136.5790 C.3   139  ASN139      0.1169
     47  CG         0.0940   35.6560  136.1790 C.2   139  ASN139      0.2627
     48  OD1        0.6280   34.5650  135.9710 O.2   139  ASN139     -0.2716
     49  ND2        0.7440   36.8060  136.0670 N.am  139  ASN139     -0.0877
     50  N         -2.3250   34.1340  139.6850 N.am  140  ARG140     -0.1979
     51  CA        -1.9890   33.9120  141.0880 C.3   140  ARG140      0.1597
     52  C         -2.2900   32.4580  141.4710 C.2   140  ARG140      0.2287
     53  O         -2.2750   32.1140  142.6490 O.2   140  ARG140     -0.2864
     54  CB        -2.8080   34.8370  141.9980 C.3   140  ARG140      0.0334
     55  CG        -2.6110   36.3190  141.7520 C.3   140  ARG140      0.0492
     56  CD        -1.2270   36.7920  142.1530 C.3   140  ARG140      0.2205
     57  NE        -1.1290   38.2400  141.9920 N.pl3 140  ARG140     -0.0865
     58  CZ        -1.0150   38.8410  140.8130 C.cat 140  ARG140      0.5346
     59  NH1       -0.9760   38.1120  139.7070 N.pl3 140  ARG140      0.1354
     60  NH2       -0.9620   40.1640  140.7370 N.pl3 140  ARG140      0.1354
     61  N         -7.2840   39.8760  142.7190 N.3   159  THR159     -0.1218
     62  CA        -6.0780   39.0530  142.7570 C.3   159  THR159      0.1862
     63  C         -6.2490   37.7890  143.5940 C.2   159  THR159      0.2287
     64  O         -5.2730   37.2430  144.1090 O.2   159  THR159     -0.2866
     65  CB        -4.8580   39.8480  143.2950 C.3   159  THR159      0.1770
     66  OG1       -5.1410   40.3520  144.6070 O.3   159  THR159     -0.2211
     67  CG2       -4.5350   41.0090  142.3720 C.3   159  THR159      0.0375
     68  N          0.9110   39.9290  128.5600 N.3   192  HIS192     -0.1226
     69  CA        -0.0870   40.7170  129.2840 C.3   192  HIS192      0.1752
     70  C         -0.0610   42.1650  128.7670 C.2   192  HIS192      0.2597
     71  O          0.7090   42.4980  127.8690 O.2   192  HIS192     -0.2718
     72  CB         0.2300   40.7260  130.7850 C.3   192  HIS192      0.0759
     73  CG         0.0110   39.4140  131.4770 C.ar  192  HIS192      0.0818
     74  ND1       -0.9080   39.2860  132.4890 N.ar  192  HIS192     -0.2268
     75  CD2        0.6580   38.2340  131.3070 C.ar  192  HIS192      0.1154
     76  CE1       -0.8030   38.0440  132.9180 C.ar  192  HIS192      0.1986
     77  NE2        0.1300   37.3640  132.2360 N.ar  192  HIS192     -0.2212
     78  N         -0.9180   43.0120  129.3320 N.am  193  SER193     -0.1938
     79  CA        -0.7840   44.4710  129.2150 C.3   193  SER193      0.2055
     80  C         -1.3950   45.0780  130.4810 C.2   193  SER193      0.2643
     81  O         -2.1460   44.3980  131.1770 O.2   193  SER193     -0.2714
     82  CB        -1.5190   44.9840  127.9670 C.3   193  SER193      0.2130
     83  OG        -2.9280   44.9950  128.1470 O.3   193  SER193     -0.2179
     84  N         -1.0790   46.3300  130.8170 N.am  194  TYR194     -0.1959
     85  CA        -0.1680   47.1990  130.0760 C.3   194  TYR194      0.1771
     86  C          0.9940   47.6030  130.9940 C.2   194  TYR194      0.2620
     87  O          0.9940   47.2620  132.1720 O.2   194  TYR194     -0.2715
     88  CB        -0.9240   48.4540  129.6300 C.3   194  TYR194      0.0574
     89  CG        -1.5940   49.1820  130.7820 C.ar  194  TYR194     -0.0198
     90  CD1       -2.8610   48.8130  131.2220 C.ar  194  TYR194     -0.0009
     91  CD2       -0.9520   50.2260  131.4360 C.ar  194  TYR194     -0.0009
     92  CE1       -3.4710   49.4650  132.2810 C.ar  194  TYR194      0.0417
     93  CE2       -1.5560   50.8850  132.5000 C.ar  194  TYR194      0.0417
     94  CZ        -2.8160   50.5000  132.9160 C.ar  194  TYR194      0.1957
     95  OH        -3.4300   51.1570  133.9640 O.3   194  TYR194     -0.2866
     96  N          1.9730   48.3220  130.4430 N.am  195  SER195     -0.1950
     97  CA         3.0540   48.9600  131.2130 C.3   195  SER195      0.1924
     98  C          4.3420   49.0580  130.4200 C.2   195  SER195      0.2314
     99  O          5.2850   49.7250  130.8460 O.2   195  SER195     -0.2863
    100  CB         3.3580   48.2030  132.5120 C.3   195  SER195      0.2116
    101  OG         2.6110   48.7340  133.5860 O.3   195  SER195     -0.2180
    102  N          9.4930   41.2830  131.9170 N.3   199  LEU199     -0.1245
    103  CA         9.8170   40.8060  133.2630 C.3   199  LEU199      0.1561
    104  C         10.3560   39.3820  133.2070 C.2   199  LEU199      0.2260
    105  O          9.9390   38.5910  132.3640 O.2   199  LEU199     -0.2867
    106  CB         8.5720   40.8300  134.1470 C.3   199  LEU199      0.0270
    107  CG         7.7730   42.1290  134.1360 C.3   199  LEU199      0.0019
    108  CD1        6.4940   41.9580  134.9470 C.3   199  LEU199      0.0001
    109  CD2        8.6330   43.2440  134.6910 C.3   199  LEU199      0.0001
    110  N          8.8610   36.7340  140.8460 N.3   203  SER203     -0.1217
    111  CA         7.8300   37.6330  141.3410 C.3   203  SER203      0.1889
    112  C          7.3110   37.2120  142.7180 C.2   203  SER203      0.2288
    113  O          6.7860   38.0400  143.4620 O.2   203  SER203     -0.2866
    114  CB         6.6690   37.7030  140.3450 C.3   203  SER203      0.2089
    115  OG         7.0990   38.2670  139.1170 O.3   203  SER203     -0.2183
    116  N         10.4770   40.4340  138.2350 N.3   239  GLY239     -0.1225
    117  CA         9.1130   40.8850  138.4410 C.3   239  GLY239      0.1811
    118  C          8.8760   41.5890  139.7650 C.2   239  GLY239      0.2280
    119  O          8.2230   42.6300  139.8110 O.2   239  GLY239     -0.2866
    120  N          7.7680   45.5480  138.9270 N.3   243  ILE243     -0.1231
    121  CA         6.3730   45.9500  138.9800 C.3   243  ILE243      0.1692
    122  C          5.8170   45.8390  140.4030 C.2   243  ILE243      0.2592
    123  O          5.5360   46.8540  141.0370 O.2   243  ILE243     -0.2718
    124  CB         5.5370   45.1150  137.9810 C.3   243  ILE243      0.0266
    125  CG1        4.0590   45.4540  138.1210 C.3   243  ILE243      0.0019
    126  CG2        5.8060   43.6520  138.1830 C.3   243  ILE243      0.0020
    127  CD1        3.7440   46.9000  137.8210 C.3   243  ILE243      0.0001
    128  N          5.6760   44.6190  140.9080 N.am  244  TYR244     -0.1976
    129  CA         5.3490   44.3990  142.3150 C.3   244  TYR244      0.1639
    130  C          5.3480   42.9070  142.6130 C.2   244  TYR244      0.2290
    131  O          5.1920   42.0910  141.7100 O.2   244  TYR244     -0.2864
    132  CB         3.9800   45.0120  142.6690 C.3   244  TYR244      0.0560
    133  CG         2.8550   44.6960  141.7010 C.ar  244  TYR244     -0.0198
    134  CD1        2.2920   43.4270  141.6410 C.ar  244  TYR244     -0.0009
    135  CD2        2.3550   45.6730  140.8480 C.ar  244  TYR244     -0.0009
    136  CE1        1.2610   43.1390  140.7500 C.ar  244  TYR244      0.0417
    137  CE2        1.3260   45.3940  139.9540 C.ar  244  TYR244      0.0417
    138  CZ         0.7840   44.1270  139.9080 C.ar  244  TYR244      0.1957
    139  OH        -0.2250   43.8460  139.0030 O.3   244  TYR244     -0.2866
    140  N          4.1640   39.3170  143.2820 N.3   246  ALA246     -0.1245
    141  CA         2.9410   38.6270  142.8900 C.3   246  ALA246      0.1562
    142  C          3.2140   37.1360  142.7910 C.2   246  ALA246      0.2260
    143  O          3.7230   36.6580  141.7760 O.2   246  ALA246     -0.2867
    144  CB         2.4460   39.1550  141.5510 C.3   246  ALA246      0.0290
    145  N          2.5220   33.1540  139.8980 N.3   249  GLY249     -0.1225
    146  CA         2.5330   33.4960  138.4860 C.3   249  GLY249      0.1811
    147  C          3.0170   32.3600  137.6060 C.2   249  GLY249      0.2280
    148  O          3.8360   31.5410  138.0320 O.2   249  GLY249     -0.2866
    149  N          4.8860   32.4400  134.9150 N.3   251  ASP251     -0.1239
    150  CA         6.2780   32.5400  134.4870 C.3   251  ASP251      0.1674
    151  C          7.2480   32.0040  135.5440 C.2   251  ASP251      0.2266
    152  O          8.1810   31.2720  135.2100 O.2   251  ASP251     -0.2867
    153  CB         6.6400   33.9840  134.1110 C.3   251  ASP251      0.1410
    154  CG         6.4300   34.9600  135.2430 C.2   251  ASP251      0.3668
    155  OD1        5.7860   34.5930  136.2530 O.co2 251  ASP251     -0.2456
    156  OD2        6.9100   36.1090  135.1190 O.co2 251  ASP251     -0.2456
    157  N          7.6160   37.4790  131.1270 N.3   264  THR264     -0.1218
    158  CA         6.3010   38.0980  130.9960 C.3   264  THR264      0.1862
    159  C          6.4500   39.4000  130.2120 C.2   264  THR264      0.2287
    160  O          7.2850   40.2420  130.5480 O.2   264  THR264     -0.2866
    161  CB         5.7010   38.4160  132.3800 C.3   264  THR264      0.1770
    162  OG1        5.5370   37.2000  133.1190 O.3   264  THR264     -0.2211
    163  CG2        4.3460   39.1090  132.2320 C.3   264  THR264      0.0375
    164  N          4.6210   42.9040  129.1820 N.3   266  GLU266     -0.1245
    165  CA         3.5350   43.8640  129.3690 C.3   266  GLU266      0.1567
    166  C          3.5440   44.8180  128.1780 C.2   266  GLU266      0.2260
    167  O          4.4560   45.6310  128.0480 O.2   266  GLU266     -0.2867
    168  CB         3.7440   44.6720  130.6550 C.3   266  GLU266      0.0388
    169  CG         3.7980   43.8390  131.9240 C.3   266  GLU266      0.1160
    170  CD         2.4520   43.2440  132.2780 C.2   266  GLU266      0.3649
    171  OE1        1.4320   43.6950  131.7070 O.co2 266  GLU266     -0.2457
    172  OE2        2.4150   42.3250  133.1210 O.co2 266  GLU266     -0.2457
    173  N         -6.0110   49.3970  129.4430 N.3   275  PHE275     -0.1241
    174  CA        -6.5560   48.1850  128.8400 C.3   275  PHE275      0.1605
    175  C         -7.3450   48.4810  127.5790 C.2   275  PHE275      0.2264
    176  O         -7.5000   47.6170  126.7190 O.2   275  PHE275     -0.2867
    177  CB        -7.4520   47.4480  129.8340 C.3   275  PHE275      0.0534
    178  CG        -6.7520   47.0710  131.1010 C.ar  275  PHE275     -0.0203
    179  CD1       -5.6060   46.2950  131.0630 C.ar  275  PHE275     -0.0042
    180  CD2       -7.2190   47.5170  132.3250 C.ar  275  PHE275     -0.0042
    181  CE1       -4.9310   45.9700  132.2230 C.ar  275  PHE275     -0.0003
    182  CE2       -6.5500   47.1980  133.4910 C.ar  275  PHE275     -0.0003
    183  CZ        -5.4010   46.4210  133.4400 C.ar  275  PHE275     -0.0000
@<TRIPOS>BOND
     1    25    24    2
     2   176   175    2
     3    24    23    1
     4   175   174    1
     5    71    70    2
     6    82    83    1
     7    82    79    1
     8   167   166    2
     9   166   165    1
    10    23    22    1
    11    23    26    1
    12    14    13    2
    13    68    69    1
    14    70    69    1
    15    70    78   am
    16   174   173    1
    17   174   177    1
    18    22    13   am
    19    13    12    1
    20    26    27    1
    21   164   165    1
    22    79    78    1
    23    79    80    1
    24    69    72    1
    25   165   168    1
    26    88    85    1
    27    88    89    1
    28    12    11    1
    29    12    15    1
    30   177   178    1
    31     4     3    2
    32    85    84    1
    33    85    86    1
    34   159   160    2
    35   159   158    1
    36    98    99    2
    37    98    97    1
    38    96    86   am
    39    96    97    1
    40    27    28    1
    41    80    84   am
    42    80    81    2
    43   168   169    1
    44    89    90   ar
    45    89    91   ar
    46    72    73    1
    47    30    28   ar
    48     3     2    1
    49    15    16    1
    50    86    87    2
    51   158   157    1
    52   158   161    1
    53   179   178   ar
    54   179   181   ar
    55   178   180   ar
    56    97   100    1
    57    90    92   ar
    58     1     2    1
    59    75    73   ar
    60    75    77   ar
    61    28    29   ar
    62    91    93   ar
    63    73    74   ar
    64   171   170   ar
    65   102   103    1
    66     2     5    1
    67   169   170    1
    68    16    17    1
    69   181   183   ar
    70   163   161    1
    71    77    76   ar
    72   170   172   ar
    73    92    94   ar
    74   180   182   ar
    75   105   104    2
    76   161   162    1
    77    74    76   ar
    78    93    94   ar
    79   100   101    1
    80     5     6    1
    81    94    95    1
    82   104   103    1
    83    17    18    1
    84   103   106    1
    85   183   182   ar
    86     6     7   ar
    87     6     8   ar
    88     7     9   ar
    89   153   150    1
    90   153   154    1
    91   107   106    1
    92   107   109    1
    93   107   108    1
    94    18    19    2
    95    34    33    2
    96   150   149    1
    97   150   151    1
    98    31    32    1
    99    32    33    1
   100    32    35    1
   101     8    10   ar
   102   156   154   ar
   103   152   151    2
   104   154   155   ar
   105     9    10   ar
   106    19    20    1
   107    19    21    1
   108    48    47    2
   109    35    36    1
   110    49    47   am
   111    47    46    1
   112    36    37    1
   113    46    43    1
   114    40    39    1
   115    42    43    1
   116    43    44    1
   117    37    38    1
   118    39    38    2
   119    39    41    1
   120   147   148    2
   121   147   146    1
   122   127   125    1
   123   124   125    1
   124   124   126    1
   125   124   121    1
   126   116   117    1
   127   117   118    1
   128   146   145    1
   129    44    45    2
   130    44    50   am
   131   120   121    1
   132   121   122    1
   133   139   138    1
   134   115   114    1
   135    50    51    1
   136    59    58    1
   137   118   119    2
   138   138   137   ar
   139   138   136   ar
   140   137   135   ar
   141   114   111    1
   142   122   128   am
   143   122   123    2
   144    60    58    1
   145   136   134   ar
   146    58    57    2
   147   110   111    1
   148   135   133   ar
   149   128   129    1
   150    51    52    1
   151    51    54    1
   152   111   112    1
   153    52    53    2
   154   144   141    1
   155   134   133   ar
   156   133   132    1
   157   131   130    2
   158    55    54    1
   159    55    56    1
   160   143   142    2
   161    57    56    1
   162   129   130    1
   163   129   132    1
   164    67    65    1
   165   112   113    2
   166    61    62    1
   167    62    65    1
   168    62    63    1
   169   142   141    1
   170   141   140    1
   171    65    66    1
   172    63    64    2
