@<TRIPOS>MOLECULE
tmp/2pjaA00.pdb
 217 204 0 0 0
SMALL
GASTEIGER

@<TRIPOS>ATOM
      1  N         29.8340    7.4650   61.0030 N.3    64  HIS64      -0.1241
      2  CA        29.8340    8.1950   62.2600 C.3    64  HIS64       0.1621
      3  C         28.4410    8.7200   62.5930 C.2    64  HIS64       0.2264
      4  O         27.8020    9.3880   61.7830 O.2    64  HIS64      -0.2867
      5  CB        30.8600    9.3340   62.2000 C.3    64  HIS64       0.0745
      6  CG        32.2830    8.8610   62.2480 C.ar   64  HIS64       0.0817
      7  ND1       33.2540    9.4080   61.4490 N.ar   64  HIS64      -0.2268
      8  CD2       32.8350    7.8930   63.0220 C.ar   64  HIS64       0.1154
      9  CE1       34.3690    8.7710   61.7510 C.ar   64  HIS64       0.1986
     10  NE2       34.1680    7.8440   62.6960 N.ar   64  HIS64      -0.2212
     11  N         26.8020   10.9140   64.4350 N.3    66  ARG66      -0.1231
     12  CA        26.3270   12.2950   64.5000 C.3    66  ARG66       0.1694
     13  C         26.3490   13.0230   63.1590 C.2    66  ARG66       0.2591
     14  O         25.8180   14.1310   63.0370 O.2    66  ARG66      -0.2718
     15  CB        27.1640   13.0820   65.5070 C.3    66  ARG66       0.0321
     16  CG        28.6420   13.1510   65.1650 C.3    66  ARG66       0.0489
     17  CD        29.4310   13.5990   66.3830 C.3    66  ARG66       0.2205
     18  NE        30.8690   13.6230   66.1450 N.pl3  66  ARG66      -0.0865
     19  CZ        31.7760   13.8120   67.1010 C.cat  66  ARG66       0.5346
     20  NH1       31.3880   13.9890   68.3570 N.pl3  66  ARG66       0.1354
     21  NH2       33.0700   13.8320   66.8020 N.pl3  66  ARG66       0.1354
     22  N         26.9660   12.4110   62.1560 N.am   67  GLU67      -0.1979
     23  CA        27.1080   13.0510   60.8550 C.3    67  GLU67       0.1602
     24  C         25.8700   12.8370   59.9870 C.2    67  GLU67       0.2287
     25  O         25.9340   12.1910   58.9460 O.2    67  GLU67      -0.2864
     26  CB        28.3650   12.5160   60.1680 C.3    67  GLU67       0.0415
     27  CG        29.6180   12.8740   60.9520 C.3    67  GLU67       0.1163
     28  CD        30.8640   12.1630   60.4720 C.2    67  GLU67       0.3649
     29  OE1       31.8570   12.1850   61.2310 O.co2  67  GLU67      -0.2457
     30  OE2       30.8540   11.5910   59.3600 O.co2  67  GLU67      -0.2457
     31  N         29.3960    9.4040   68.3920 N.3   122  ARG122     -0.1245
     32  CA        30.2090    9.1770   67.1970 C.3   122  ARG122      0.1563
     33  C         30.3950    7.6870   66.9150 C.2   122  ARG122      0.2260
     34  O         30.2170    7.2220   65.7850 O.2   122  ARG122     -0.2867
     35  CB        31.5800    9.8360   67.3790 C.3   122  ARG122      0.0307
     36  CG        32.6460    9.4400   66.3440 C.3   122  ARG122      0.0489
     37  CD        33.9810   10.0980   66.6900 C.3   122  ARG122      0.2205
     38  NE        35.1010    9.6710   65.8460 N.pl3 122  ARG122     -0.0865
     39  CZ        35.3850   10.1930   64.6560 C.cat 122  ARG122      0.5346
     40  NH1       34.6260   11.1590   64.1510 N.pl3 122  ARG122      0.1354
     41  NH2       36.4470    9.7720   63.9810 N.pl3 122  ARG122      0.1354
     42  N         35.7880    4.0480   61.9780 N.3   139  ASN139     -0.1225
     43  CA        36.7970    4.4820   61.0230 C.3   139  ASN139      0.1785
     44  C         38.2030    4.5020   61.6120 C.2   139  ASN139      0.2597
     45  O         39.1000    5.1580   61.0800 O.2   139  ASN139     -0.2718
     46  CB        36.4520    5.8590   60.4530 C.3   139  ASN139      0.1169
     47  CG        36.9280    6.0130   59.0250 C.2   139  ASN139      0.2627
     48  OD1       37.0340    5.0250   58.2980 O.2   139  ASN139     -0.2716
     49  ND2       37.2270    7.2420   58.6180 N.am  139  ASN139     -0.0877
     50  N         38.3880    3.7850   62.7150 N.am  140  ARG140     -0.1979
     51  CA        39.7270    3.4620   63.2010 C.3   140  ARG140      0.1597
     52  C         39.8390    1.9530   63.3620 C.2   140  ARG140      0.2287
     53  O         40.8040    1.4550   63.9390 O.2   140  ARG140     -0.2864
     54  CB        39.9960    4.1270   64.5540 C.3   140  ARG140      0.0334
     55  CG        39.8680    5.6390   64.5620 C.3   140  ARG140      0.0492
     56  CD        40.9890    6.3090   63.7870 C.3   140  ARG140      0.2205
     57  NE        40.9060    7.7590   63.9040 N.pl3 140  ARG140     -0.0865
     58  CZ        40.0710    8.5140   63.2000 C.cat 140  ARG140      0.5346
     59  NH1       39.2500    7.9510   62.3230 N.pl3 140  ARG140      0.1354
     60  NH2       40.0450    9.8300   63.3820 N.pl3 140  ARG140      0.1354
     61  N         46.9520    8.4470   65.1300 N.3   150  GLY150     -0.1225
     62  CA        45.6890    9.1630   65.0770 C.3   150  GLY150      0.1811
     63  C         44.5230    8.3980   65.6780 C.2   150  GLY150      0.2280
     64  O         43.3730    8.5870   65.2740 O.2   150  GLY150     -0.2866
     65  N         36.9170    8.9580   71.9410 N.3   158  GLU158     -0.1231
     66  CA        36.1300    9.0680   70.7110 C.3   158  GLU158      0.1699
     67  C         36.7620    8.3780   69.4980 C.2   158  GLU158      0.2592
     68  O         36.0670    8.0490   68.5340 O.2   158  GLU158     -0.2718
     69  CB        35.8980   10.5420   70.3790 C.3   158  GLU158      0.0402
     70  CG        35.1310   11.2950   71.4450 C.3   158  GLU158      0.1161
     71  CD        33.6420   11.2820   71.1980 C.2   158  GLU158      0.3649
     72  OE1       33.0210   10.2140   71.3930 O.co2 158  GLU158     -0.2457
     73  OE2       33.0980   12.3410   70.8040 O.co2 158  GLU158     -0.2457
     74  N         38.0740    8.1750   69.5380 N.am  159  THR159     -0.1953
     75  CA        38.7730    7.5540   68.4170 C.3   159  THR159      0.1897
     76  C         39.3090    6.1800   68.7920 C.2   159  THR159      0.2313
     77  O         40.3040    5.7200   68.2300 O.2   159  THR159     -0.2863
     78  CB        39.9480    8.4250   67.9280 C.3   159  THR159      0.1794
     79  OG1       40.8400    8.6870   69.0200 O.3   159  THR159     -0.2208
     80  CG2       39.4320    9.7490   67.3660 C.3   159  THR159      0.0378
     81  N         31.1140   11.2320   54.8580 N.3   192  HIS192     -0.1226
     82  CA        31.2100   11.7870   56.2100 C.3   192  HIS192      0.1752
     83  C         30.8290   13.2710   56.1770 C.2   192  HIS192      0.2597
     84  O         30.5840   13.8300   55.1110 O.2   192  HIS192     -0.2718
     85  CB        32.6450   11.6720   56.7340 C.3   192  HIS192      0.0759
     86  CG        33.0670   10.2740   57.0650 C.ar  192  HIS192      0.0818
     87  ND1       33.3610    9.9050   58.3530 N.ar  192  HIS192     -0.2268
     88  CD2       33.2550    9.2150   56.2400 C.ar  192  HIS192      0.1154
     89  CE1       33.7240    8.6390   58.2890 C.ar  192  HIS192      0.1986
     90  NE2       33.6770    8.1750   57.0300 N.ar  192  HIS192     -0.2212
     91  N         30.7790   13.8940   57.3540 N.am  193  SER193     -0.1938
     92  CA        30.7750   15.3550   57.4700 C.3   193  SER193      0.2055
     93  C         31.4800   15.7050   58.7860 C.2   193  SER193      0.2643
     94  O         31.6900   14.8240   59.6150 O.2   193  SER193     -0.2714
     95  CB        29.3360   15.8830   57.4800 C.3   193  SER193      0.2130
     96  OG        28.7000   15.6310   58.7240 O.3   193  SER193     -0.2179
     97  N         31.8730   16.9650   58.9910 N.am  194  TYR194     -0.1959
     98  CA        31.7930   18.0450   58.0070 C.3   194  TYR194      0.1771
     99  C         33.2220   18.4930   57.6690 C.2   194  TYR194      0.2620
    100  O         34.1760   18.0530   58.3110 O.2   194  TYR194     -0.2715
    101  CB        31.0340   19.2250   58.6140 C.3   194  TYR194      0.0574
    102  CG        31.6550   19.7000   59.9120 C.ar  194  TYR194     -0.0198
    103  CD1       31.3580   19.0720   61.1170 C.ar  194  TYR194     -0.0009
    104  CD2       32.5740   20.7420   59.9260 C.ar  194  TYR194     -0.0009
    105  CE1       31.9650   19.4680   62.3020 C.ar  194  TYR194      0.0417
    106  CE2       33.1850   21.1420   61.1020 C.ar  194  TYR194      0.0417
    107  CZ        32.8790   20.5020   62.2840 C.ar  194  TYR194      0.1957
    108  OH        33.4970   20.8940   63.4520 O.3   194  TYR194     -0.2866
    109  N         33.3540   19.3730   56.6780 N.am  195  SER195     -0.1950
    110  CA        34.6250   20.0430   56.3600 C.3   195  SER195      0.1924
    111  C         34.6880   20.5000   54.9070 C.2   195  SER195      0.2314
    112  O         35.5140   21.3460   54.5500 O.2   195  SER195     -0.2863
    113  CB        35.8250   19.1280   56.6300 C.3   195  SER195      0.2116
    114  OG        36.3720   19.3730   57.9130 O.3   195  SER195     -0.2180
    115  N         35.4770   18.5450   52.0390 N.3   197  MET197     -0.1245
    116  CA        36.7040   18.0320   51.4490 C.3   197  MET197      0.1570
    117  C         36.4410   16.7310   50.7080 C.2   197  MET197      0.2261
    118  O         35.5000   16.0050   51.0270 O.2   197  MET197     -0.2867
    119  CB        37.7490   17.7740   52.5330 C.3   197  MET197      0.0387
    120  CG        38.2390   19.0190   53.2390 C.3   197  MET197      0.0595
    121  SD        39.3640   18.5940   54.5700 S.3   197  MET197     -0.1393
    122  CE        39.9380   20.2360   55.0570 C.3   197  MET197      0.0692
    123  N         38.9340   13.5610   50.3220 N.3   199  LEU199     -0.1245
    124  CA        40.2350   13.0150   50.6710 C.3   199  LEU199      0.1561
    125  C         40.4410   11.6510   50.0230 C.2   199  LEU199      0.2260
    126  O         39.4880   10.9030   49.8160 O.2   199  LEU199     -0.2867
    127  CB        40.3650   12.9120   52.1940 C.3   199  LEU199      0.0270
    128  CG        39.9980   14.2260   52.8970 C.3   199  LEU199      0.0019
    129  CD1       38.6090   14.1140   53.4860 C.3   199  LEU199      0.0001
    130  CD2       41.0030   14.5450   53.9760 C.3   199  LEU199      0.0001
    131  N         45.9570    8.0890   54.8610 N.3   203  SER203     -0.1217
    132  CA        45.8430    8.7730   56.1370 C.3   203  SER203      0.1889
    133  C         46.6410    8.0790   57.2330 C.2   203  SER203      0.2288
    134  O         47.0710    8.7280   58.1840 O.2   203  SER203     -0.2866
    135  CB        44.3780    8.8750   56.5580 C.3   203  SER203      0.2089
    136  OG        43.6710    9.7720   55.7200 O.3   203  SER203     -0.2183
    137  N         43.8150   16.7580   56.2750 N.3   243  ILE243     -0.1231
    138  CA        43.0370   16.9440   57.4900 C.3   243  ILE243      0.1692
    139  C         43.8210   16.5450   58.7420 C.2   243  ILE243      0.2592
    140  O         44.0810   17.3850   59.6040 O.2   243  ILE243     -0.2718
    141  CB        41.7160   16.1540   57.4050 C.3   243  ILE243      0.0266
    142  CG1       40.8440   16.4610   58.6160 C.3   243  ILE243      0.0019
    143  CG2       41.9970   14.6700   57.3000 C.3   243  ILE243      0.0020
    144  CD1       39.4240   16.0090   58.4340 C.3   243  ILE243      0.0001
    145  N         44.1970   15.2710   58.8350 N.am  244  TYR244     -0.1976
    146  CA        45.1350   14.7980   59.8510 C.3   244  TYR244      0.1639
    147  C         45.4340   13.3150   59.6750 C.2   244  TYR244      0.2290
    148  O         44.6440   12.5760   59.0870 O.2   244  TYR244     -0.2864
    149  CB        44.6010   15.0560   61.2730 C.3   244  TYR244      0.0560
    150  CG        43.1640   14.6310   61.5340 C.ar  244  TYR244     -0.0198
    151  CD1       42.8130   13.2870   61.6360 C.ar  244  TYR244     -0.0009
    152  CD2       42.1640   15.5800   61.7090 C.ar  244  TYR244     -0.0009
    153  CE1       41.5020   12.9040   61.9050 C.ar  244  TYR244      0.0417
    154  CE2       40.8540   15.2100   61.9780 C.ar  244  TYR244      0.0417
    155  CZ        40.5260   13.8730   62.0750 C.ar  244  TYR244      0.1957
    156  OH        39.2170   13.5150   62.3410 O.3   244  TYR244     -0.2866
    157  N         45.5820    9.4610   60.5460 N.3   246  ALA246     -0.1245
    158  CA        44.7050    8.5890   61.3140 C.3   246  ALA246      0.1562
    159  C         44.6980    7.2010   60.6900 C.2   246  ALA246      0.2260
    160  O         44.4150    7.0420   59.5040 O.2   246  ALA246     -0.2867
    161  CB        43.2890    9.1630   61.3480 C.3   246  ALA246      0.0290
    162  N         41.4130    3.5810   58.8070 N.3   249  GLY249     -0.1225
    163  CA        40.2880    4.0960   58.0400 C.3   249  GLY249      0.1811
    164  C         39.9010    3.1920   56.8840 C.2   249  GLY249      0.2280
    165  O         40.7530    2.5110   56.3050 O.2   249  GLY249     -0.2866
    166  N         38.7810    3.9330   53.8360 N.3   251  ASP251     -0.1225
    167  CA        39.2450    4.3300   52.5180 C.3   251  ASP251      0.1805
    168  C         40.6560    3.8090   52.2470 C.2   251  ASP251      0.2597
    169  O         40.9320    3.2970   51.1600 O.2   251  ASP251     -0.2718
    170  CB        39.1830    5.8560   52.3460 C.3   251  ASP251      0.1424
    171  CG        39.9910    6.6080   53.3820 C.2   251  ASP251      0.3668
    172  OD1       40.5540    5.9660   54.2870 O.co2 251  ASP251     -0.2456
    173  OD2       40.0590    7.8540   53.2830 O.co2 251  ASP251     -0.2456
    174  N         41.5350    3.9100   53.2410 N.am  252  ASP252     -0.1974
    175  CA        42.8940    3.3880   53.1150 C.3   252  ASP252      0.1709
    176  C         42.8720    1.8690   52.9680 C.2   252  ASP252      0.2293
    177  O         43.6130    1.3040   52.1620 O.2   252  ASP252     -0.2864
    178  CB        43.7330    3.7620   54.3440 C.3   252  ASP252      0.1436
    179  CG        44.1720    5.2160   54.3360 C.2   252  ASP252      0.3671
    180  OD1       43.9070    5.9120   53.3360 O.co2 252  ASP252     -0.2456
    181  OD2       44.7880    5.6600   55.3310 O.co2 252  ASP252     -0.2456
    182  N         37.2030    9.6440   50.6700 N.3   264  THR264     -0.1218
    183  CA        36.3400   10.0540   51.7660 C.3   264  THR264      0.1862
    184  C         35.7840   11.4390   51.4660 C.2   264  THR264      0.2287
    185  O         36.5370   12.3870   51.2430 O.2   264  THR264     -0.2866
    186  CB        37.1130   10.0990   53.1000 C.3   264  THR264      0.1770
    187  OG1       37.5110    8.7690   53.4650 O.3   264  THR264     -0.2211
    188  CG2       36.2430   10.6920   54.2030 C.3   264  THR264      0.0375
    189  N         33.8020   14.6970   52.8410 N.3   266  GLU266     -0.1245
    190  CA        33.3660   15.4500   54.0060 C.3   266  GLU266      0.1567
    191  C         32.4150   16.5180   53.5070 C.2   266  GLU266      0.2260
    192  O         32.8310   17.4380   52.8070 O.2   266  GLU266     -0.2867
    193  CB        34.5630   16.1130   54.6890 C.3   266  GLU266      0.0388
    194  CG        35.5070   15.1340   55.3630 C.3   266  GLU266      0.1160
    195  CD        34.8920   14.4920   56.5930 C.2   266  GLU266      0.3649
    196  OE1       33.8600   14.9950   57.0800 O.co2 266  GLU266     -0.2457
    197  OE2       35.4410   13.4830   57.0710 O.co2 266  GLU266     -0.2457
    198  N         31.5460   24.0390   57.1690 N.3   270  LYS270     -0.1245
    199  CA        32.9240   24.2590   57.5830 C.3   270  LYS270      0.1561
    200  C         32.9920   24.5670   59.0700 C.2   270  LYS270      0.2260
    201  O         34.0390   24.9660   59.5860 O.2   270  LYS270     -0.2867
    202  CB        33.5370   25.4060   56.7750 C.3   270  LYS270      0.0271
    203  CG        33.5780   25.1380   55.2750 C.3   270  LYS270      0.0035
    204  CD        34.8260   24.3660   54.8830 C.3   270  LYS270      0.0206
    205  CE        36.0430   25.2800   54.8330 C.3   270  LYS270      0.1093
    206  NZ        37.3220   24.5130   54.8050 N.3   270  LYS270     -0.1314
    207  N         28.1440   19.3400   62.7840 N.3   275  PHE275     -0.1241
    208  CA        27.3400   18.1370   62.6190 C.3   275  PHE275      0.1605
    209  C         25.8550   18.4580   62.6220 C.2   275  PHE275      0.2264
    210  O         25.0440   17.6770   62.1350 O.2   275  PHE275     -0.2867
    211  CB        27.6390   17.1370   63.7350 C.3   275  PHE275      0.0534
    212  CG        29.0920   16.7830   63.8550 C.ar  275  PHE275     -0.0203
    213  CD1       29.7520   16.1570   62.8100 C.ar  275  PHE275     -0.0042
    214  CD2       29.8020   17.0980   65.0040 C.ar  275  PHE275     -0.0042
    215  CE1       31.0950   15.8540   62.9050 C.ar  275  PHE275     -0.0003
    216  CE2       31.1460   16.7980   65.1080 C.ar  275  PHE275     -0.0003
    217  CZ        31.7960   16.1760   64.0570 C.ar  275  PHE275     -0.0000
@<TRIPOS>BOND
     1   126   125    2
     2   125   124    1
     3   123   124    1
     4   182   183    1
     5   124   127    1
     6   117   118    2
     7   117   116    1
     8   169   168    2
     9   185   184    2
    10   116   115    1
    11   116   119    1
    12   184   183    1
    13   183   186    1
    14   177   176    2
    15   127   128    1
    16   168   167    1
    17   168   174   am
    18   170   167    1
    19   170   171    1
    20   167   166    1
    21   119   120    1
    22   192   191    2
    23   189   190    1
    24   128   129    1
    25   128   130    1
    26   176   175    1
    27   186   187    1
    28   186   188    1
    29   175   174    1
    30   175   178    1
    31   120   121    1
    32   173   171   ar
    33   180   179   ar
    34   171   172   ar
    35   191   190    1
    36   190   193    1
    37   179   178    1
    38   179   181   ar
    39   112   111    2
    40   121   122    1
    41   193   194    1
    42   206   205    1
    43   205   204    1
    44    81    82    1
    45   131   132    1
    46   204   203    1
    47   111   110    1
    48    84    83    2
    49   203   202    1
    50   194   195    1
    51   136   135    1
    52   132   135    1
    53   132   133    1
    54    83    82    1
    55    83    91   am
    56    82    85    1
    57    88    90   ar
    58    88    86   ar
    59   137   138    1
    60   165   164    2
    61   110   113    1
    62   110   109    1
    63   195   197   ar
    64   195   196   ar
    65   113   114    1
    66   109    99   am
    67    85    86    1
    68   202   199    1
    69   164   163    1
    70    90    89   ar
    71    86    87   ar
    72   198   199    1
    73   133   134    2
    74   143   141    1
    75    91    92    1
    76   141   138    1
    77   141   142    1
    78    92    95    1
    79    92    93    1
    80    95    96    1
    81   138   139    1
    82   199   200    1
    83    99    98    1
    84    99   100    2
    85    98   101    1
    86    98    97    1
    87   163   162    1
    88    89    87   ar
    89    48    47    2
    90   144   142    1
    91   101   102    1
    92    49    47   am
    93   139   145   am
    94   139   140    2
    95    93    97   am
    96    93    94    2
    97   145   146    1
    98    25    24    2
    99    47    46    1
   100   200   201    2
   101   148   147    2
   102    30    28   ar
   103   160   159    2
   104   147   146    1
   105   146   149    1
   106   102   104   ar
   107   102   103   ar
   108   104   106   ar
   109    24    23    1
   110    26    23    1
   111    26    27    1
   112    46    43    1
   113    28    27    1
   114    28    29   ar
   115   157   158    1
   116   159   158    1
   117    23    22    1
   118     1     2    1
   119    43    44    1
   120    43    42    1
   121    45    44    2
   122   106   107   ar
   123   103   105   ar
   124   149   150    1
   125   158   161    1
   126     7     9   ar
   127     7     6   ar
   128   150   151   ar
   129   150   152   ar
   130    44    50   am
   131   151   153   ar
   132   152   154   ar
   133     9    10   ar
   134     4     3    2
   135   153   155   ar
   136   154   155   ar
   137   155   156    1
   138   210   209    2
   139    22    13   am
   140     5     6    1
   141     5     2    1
   142     6     8   ar
   143     2     3    1
   144   107   105   ar
   145   107   108    1
   146    59    58    1
   147   208   209    1
   148   208   207    1
   149   208   211    1
   150    10     8   ar
   151    50    51    1
   152   213   215   ar
   153   213   212   ar
   154   215   217   ar
   155    14    13    2
   156    13    12    1
   157    58    60    1
   158    58    57    2
   159    51    52    1
   160    51    54    1
   161    52    53    2
   162   211   212    1
   163    56    57    1
   164    56    55    1
   165   212   214   ar
   166    41    39    1
   167   217   216   ar
   168    40    39    1
   169    11    12    1
   170    12    15    1
   171    54    55    1
   172    39    38    2
   173   214   216   ar
   174    62    61    1
   175    62    63    1
   176    16    15    1
   177    16    17    1
   178    64    63    2
   179    34    33    2
   180    38    37    1
   181    18    17    1
   182    18    19    2
   183    36    37    1
   184    36    35    1
   185    21    19    1
   186    33    32    1
   187    19    20    1
   188    32    35    1
   189    32    31    1
   190    80    78    1
   191    78    75    1
   192    78    79    1
   193    77    76    2
   194    75    76    1
   195    75    74    1
   196    68    67    2
   197    67    74   am
   198    67    66    1
   199    69    66    1
   200    69    70    1
   201    66    65    1
   202    73    71   ar
   203    71    72   ar
   204    71    70    1
