@<TRIPOS>MOLECULE
tmp/2pjbA00.pdb
 211 199 0 0 0
SMALL
GASTEIGER

@<TRIPOS>ATOM
      1  N         29.7470    7.6160   60.9450 N.3    64  HIS64      -0.1241
      2  CA        29.7210    8.3520   62.2000 C.3    64  HIS64       0.1621
      3  C         28.3150    8.8700   62.4990 C.2    64  HIS64       0.2264
      4  O         27.7040    9.5640   61.6860 O.2    64  HIS64      -0.2867
      5  CB        30.7290    9.5060   62.1460 C.3    64  HIS64       0.0745
      6  CG        32.1580    9.0540   62.2040 C.ar   64  HIS64       0.0817
      7  ND1       33.1470    9.6830   61.4880 N.ar   64  HIS64      -0.2268
      8  CD2       32.6980    8.0240   62.9010 C.ar   64  HIS64       0.1154
      9  CE1       34.2600    9.0290   61.7610 C.ar   64  HIS64       0.1986
     10  NE2       34.0410    8.0150   62.6130 N.ar   64  HIS64      -0.2212
     11  N         26.6210   11.0220   64.2740 N.3    66  ARG66      -0.1231
     12  CA        26.1210   12.3900   64.3680 C.3    66  ARG66       0.1694
     13  C         26.1560   13.1240   63.0350 C.2    66  ARG66       0.2591
     14  O         25.6560   14.2420   62.9250 O.2    66  ARG66      -0.2718
     15  CB        26.9330   13.1760   65.3960 C.3    66  ARG66       0.0321
     16  CG        28.4110   13.2720   65.0730 C.3    66  ARG66       0.0489
     17  CD        29.1750   13.8080   66.2700 C.3    66  ARG66       0.2205
     18  NE        30.6120   13.8630   66.0310 N.pl3  66  ARG66      -0.0865
     19  CZ        31.5200   14.0070   66.9890 C.cat  66  ARG66       0.5346
     20  NH1       31.1390   14.1060   68.2590 N.pl3  66  ARG66       0.1354
     21  NH2       32.8090   14.0570   66.6790 N.pl3  66  ARG66       0.1354
     22  N         26.7490   12.5000   62.0240 N.am   67  GLU67      -0.1979
     23  CA        26.8930   13.1550   60.7280 C.3    67  GLU67       0.1602
     24  C         25.6610   12.9270   59.8540 C.2    67  GLU67       0.2287
     25  O         25.7270   12.2690   58.8160 O.2    67  GLU67      -0.2864
     26  CB        28.1630   12.6550   60.0420 C.3    67  GLU67       0.0415
     27  CG        29.4180   13.0370   60.8290 C.3    67  GLU67       0.1163
     28  CD        30.6730   12.3130   60.3770 C.2    67  GLU67       0.3649
     29  OE1       31.6570   12.3450   61.1390 O.co2  67  GLU67      -0.2457
     30  OE2       30.6850   11.7220   59.2750 O.co2  67  GLU67      -0.2457
     31  N         29.1570    9.5160   68.2690 N.3   122  ARG122     -0.1245
     32  CA        29.9730    9.2960   67.0740 C.3   122  ARG122      0.1563
     33  C         30.2060    7.8140   66.8040 C.2   122  ARG122      0.2260
     34  O         30.0740    7.3430   65.6670 O.2   122  ARG122     -0.2867
     35  CB        31.3240   10.0010   67.2430 C.3   122  ARG122      0.0307
     36  CG        32.4480    9.4910   66.3410 C.3   122  ARG122      0.0489
     37  CD        33.7510   10.1930   66.7080 C.3   122  ARG122      0.2205
     38  NE        34.9100    9.7660   65.9210 N.pl3 122  ARG122     -0.0865
     39  CZ        35.2790   10.3260   64.7730 C.cat 122  ARG122      0.5346
     40  NH1       34.5730   11.3300   64.2640 N.pl3 122  ARG122      0.1354
     41  NH2       36.3760    9.9130   64.1540 N.pl3 122  ARG122      0.1354
     42  N         35.7900    4.2670   61.8970 N.3   139  ASN139     -0.1225
     43  CA        36.7790    4.7370   60.9330 C.3   139  ASN139      0.1785
     44  C         38.1950    4.7030   61.4960 C.2   139  ASN139      0.2597
     45  O         39.1030    5.3320   60.9450 O.2   139  ASN139     -0.2718
     46  CB        36.4550    6.1570   60.4660 C.3   139  ASN139      0.1169
     47  CG        36.8830    6.4010   59.0310 C.2   139  ASN139      0.2627
     48  OD1       37.0140    5.4600   58.2480 O.2   139  ASN139     -0.2716
     49  ND2       37.1040    7.6640   58.6780 N.am  139  ASN139     -0.0877
     50  N         38.3670    3.9820   62.6000 N.am  140  ARG140     -0.1979
     51  CA        39.6900    3.6240   63.1000 C.3   140  ARG140      0.1597
     52  C         39.7930    2.1070   63.2330 C.2   140  ARG140      0.2287
     53  O         40.7700    1.5940   63.7680 O.2   140  ARG140     -0.2864
     54  CB        39.9400    4.2580   64.4730 C.3   140  ARG140      0.0334
     55  CG        39.8480    5.7770   64.5030 C.3   140  ARG140      0.0492
     56  CD        41.0080    6.4320   63.7810 C.3   140  ARG140      0.2205
     57  NE        40.9280    7.8830   63.9080 N.pl3 140  ARG140     -0.0865
     58  CZ        40.0850    8.6400   63.2170 C.cat 140  ARG140      0.5346
     59  NH1       39.2550    8.0830   62.3460 N.pl3 140  ARG140      0.1354
     60  NH2       40.0560    9.9490   63.4130 N.pl3 140  ARG140      0.1354
     61  N         46.6990    8.6630   65.2720 N.3   150  GLY150     -0.1225
     62  CA        45.4380    9.3730   65.1650 C.3   150  GLY150      0.1811
     63  C         44.2830    8.5890   65.7570 C.2   150  GLY150      0.2280
     64  O         43.1210    8.8540   65.4470 O.2   150  GLY150     -0.2866
     65  N         37.9520    8.2530   69.5320 N.3   159  THR159     -0.1218
     66  CA        38.6640    7.6310   68.4240 C.3   159  THR159      0.1862
     67  C         39.1960    6.2480   68.7810 C.2   159  THR159      0.2287
     68  O         40.1780    5.7880   68.1970 O.2   159  THR159     -0.2866
     69  CB        39.8420    8.5080   67.9420 C.3   159  THR159      0.1770
     70  OG1       40.7530    8.7330   69.0270 O.3   159  THR159     -0.2211
     71  CG2       39.3300    9.8530   67.4160 C.3   159  THR159      0.0375
     72  N         31.0000   11.3660   54.8010 N.3   192  HIS192     -0.1226
     73  CA        31.0400   11.9290   56.1490 C.3   192  HIS192      0.1752
     74  C         30.6260   13.4070   56.0920 C.2   192  HIS192      0.2597
     75  O         30.4030   13.9580   55.0140 O.2   192  HIS192     -0.2718
     76  CB        32.4610   11.8410   56.7270 C.3   192  HIS192      0.0759
     77  CG        32.9160   10.4490   57.0460 C.ar  192  HIS192      0.0818
     78  ND1       33.2360   10.0800   58.3280 N.ar  192  HIS192     -0.2268
     79  CD2       33.1250    9.3990   56.2120 C.ar  192  HIS192      0.1154
     80  CE1       33.6350    8.8250   58.2530 C.ar  192  HIS192      0.1986
     81  NE2       33.5850    8.3660   56.9910 N.ar  192  HIS192     -0.2212
     82  N         30.5290   14.0400   57.2580 N.am  193  SER193     -0.1938
     83  CA        30.4890   15.5040   57.3560 C.3   193  SER193      0.2055
     84  C         31.1890   15.8710   58.6650 C.2   193  SER193      0.2643
     85  O         31.3960   14.9960   59.4990 O.2   193  SER193     -0.2714
     86  CB        29.0400   16.0000   57.3790 C.3   193  SER193      0.2130
     87  OG        28.4230   15.7210   58.6240 O.3   193  SER193     -0.2179
     88  N         31.5670   17.1350   58.8640 N.am  194  TYR194     -0.1959
     89  CA        31.4470   18.2150   57.8900 C.3   194  TYR194      0.1771
     90  C         32.8570   18.6900   57.5170 C.2   194  TYR194      0.2620
     91  O         33.8370   18.1540   58.0270 O.2   194  TYR194     -0.2715
     92  CB        30.6740   19.3800   58.5150 C.3   194  TYR194      0.0574
     93  CG        31.3070   19.8840   59.7980 C.ar  194  TYR194     -0.0198
     94  CD1       31.0690   19.2460   61.0090 C.ar  194  TYR194     -0.0009
     95  CD2       32.1590   20.9810   59.7920 C.ar  194  TYR194     -0.0009
     96  CE1       31.6660   19.6820   62.1810 C.ar  194  TYR194      0.0417
     97  CE2       32.7580   21.4280   60.9570 C.ar  194  TYR194      0.0417
     98  CZ        32.5080   20.7740   62.1460 C.ar  194  TYR194      0.1957
     99  OH        33.1080   21.2120   63.3050 O.3   194  TYR194     -0.2866
    100  N         32.9370   19.6830   56.6280 N.am  195  SER195     -0.1950
    101  CA        34.1750   20.4150   56.3080 C.3   195  SER195      0.1924
    102  C         34.3380   20.7270   54.8280 C.2   195  SER195      0.2314
    103  O         35.2410   21.4750   54.4450 O.2   195  SER195     -0.2863
    104  CB        35.4230   19.6570   56.7650 C.3   195  SER195      0.2116
    105  OG        35.6820   19.9170   58.1280 O.3   195  SER195     -0.2180
    106  N         35.2140   18.7240   51.9940 N.3   197  MET197     -0.1245
    107  CA        36.4570   18.2120   51.4310 C.3   197  MET197      0.1570
    108  C         36.2030   16.9460   50.6200 C.2   197  MET197      0.2261
    109  O         35.2020   16.2590   50.8190 O.2   197  MET197     -0.2867
    110  CB        37.4500   17.8810   52.5440 C.3   197  MET197      0.0387
    111  CG        37.8540   19.0550   53.4090 C.3   197  MET197      0.0595
    112  SD        38.8760   18.4920   54.7750 S.3   197  MET197     -0.1393
    113  CE        37.6950   17.5530   55.7010 C.3   197  MET197      0.0692
    114  N         38.7210   13.7230   50.2820 N.3   199  LEU199     -0.1245
    115  CA        40.0090   13.1450   50.6640 C.3   199  LEU199      0.1561
    116  C         40.2880   11.8600   49.8920 C.2   199  LEU199      0.2260
    117  O         39.3660   11.1130   49.5630 O.2   199  LEU199     -0.2867
    118  CB        40.0320   12.8330   52.1650 C.3   199  LEU199      0.0270
    119  CG        39.4340   13.8630   53.1260 C.3   199  LEU199      0.0019
    120  CD1       39.4030   13.2700   54.5270 C.3   199  LEU199      0.0001
    121  CD2       40.2480   15.1460   53.1040 C.3   199  LEU199      0.0001
    122  N         45.7600    8.2360   54.7230 N.3   203  SER203     -0.1217
    123  CA        45.5400    8.8940   56.0020 C.3   203  SER203      0.1889
    124  C         46.3700    8.2700   57.1210 C.2   203  SER203      0.2288
    125  O         46.7290    8.9530   58.0790 O.2   203  SER203     -0.2866
    126  CB        44.0560    8.8480   56.3760 C.3   203  SER203      0.2089
    127  OG        43.2990    9.6890   55.5220 O.3   203  SER203     -0.2183
    128  N         44.4510   12.4100   52.7690 N.3   239  GLY239     -0.1225
    129  CA        43.8520   12.5550   54.0820 C.3   239  GLY239      0.1811
    130  C         44.8030   13.0980   55.1330 C.2   239  GLY239      0.2280
    131  O         44.4420   13.9850   55.9100 O.2   239  GLY239     -0.2866
    132  N         43.4180   16.6960   56.4890 N.3   243  ILE243     -0.1231
    133  CA        42.9200   16.8030   57.8540 C.3   243  ILE243      0.1692
    134  C         44.0530   16.5320   58.8350 C.2   243  ILE243      0.2592
    135  O         44.6370   17.4610   59.3940 O.2   243  ILE243     -0.2718
    136  CB        41.7680   15.8070   58.1230 C.3   243  ILE243      0.0266
    137  CG1       40.5580   16.1680   57.2600 C.3   243  ILE243      0.0019
    138  CG2       41.3760   15.8440   59.5930 C.3   243  ILE243      0.0020
    139  CD1       39.3060   15.3890   57.6100 C.3   243  ILE243      0.0001
    140  N         44.3690   15.2570   59.0240 N.am  244  TYR244     -0.1963
    141  CA        45.4280   14.8550   59.9400 C.3   244  TYR244      0.1756
    142  C         45.6010   13.3460   59.8320 C.2   244  TYR244      0.2461
    143  O         44.6590   12.6290   59.4980 O.2   244  TYR244     -0.2730
    144  CB        45.0490   15.2370   61.3750 C.3   244  TYR244      0.0574
    145  CG        46.2340   15.4950   62.2780 C.ar  244  TYR244     -0.0198
    146  CD1       47.0240   16.6250   62.1100 C.ar  244  TYR244     -0.0009
    147  CD2       46.5620   14.6110   63.2980 C.ar  244  TYR244     -0.0009
    148  CE1       48.1100   16.8680   62.9320 C.ar  244  TYR244      0.0417
    149  CE2       47.6460   14.8450   64.1270 C.ar  244  TYR244      0.0417
    150  CZ        48.4160   15.9750   63.9390 C.ar  244  TYR244      0.1957
    151  OH        49.4950   16.2180   64.7600 O.3   244  TYR244     -0.2866
    152  N         46.8110   12.8390   60.1130 N.am  245  PRO245     -0.2716
    153  CA        47.0260   11.3900   60.0640 C.3   245  PRO245      0.1536
    154  C         46.0490   10.6360   60.9620 C.2   245  PRO245      0.2598
    155  O         45.9270   10.9330   62.1500 O.2   245  PRO245     -0.2715
    156  CB        48.4760   11.2270   60.5210 C.3   245  PRO245      0.0310
    157  CG        49.1160   12.5330   60.1710 C.3   245  PRO245      0.0237
    158  CD        48.0550   13.5680   60.4150 C.3   245  PRO245      0.0939
    159  N         45.3490    9.6640   60.3850 N.am  246  ALA246     -0.1978
    160  CA        44.3620    8.8920   61.1280 C.3   246  ALA246      0.1597
    161  C         44.2940    7.4690   60.5850 C.2   246  ALA246      0.2287
    162  O         43.7630    7.2370   59.4990 O.2   246  ALA246     -0.2864
    163  CB        42.9950    9.5600   61.0250 C.3   246  ALA246      0.0319
    164  N         41.3610    3.7760   58.6510 N.3   249  GLY249     -0.1225
    165  CA        40.2650    4.2810   57.8390 C.3   249  GLY249      0.1811
    166  C         39.8280    3.3270   56.7410 C.2   249  GLY249      0.2280
    167  O         40.6480    2.6160   56.1560 O.2   249  GLY249     -0.2866
    168  N         38.6850    4.0290   53.7940 N.3   251  ASP251     -0.1239
    169  CA        39.1330    4.4240   52.4660 C.3   251  ASP251      0.1674
    170  C         40.5550    3.9420   52.1820 C.2   251  ASP251      0.2266
    171  O         40.8320    3.4190   51.1000 O.2   251  ASP251     -0.2867
    172  CB        39.0220    5.9470   52.2790 C.3   251  ASP251      0.1410
    173  CG        39.8070    6.7390   53.3120 C.2   251  ASP251      0.3668
    174  OD1       40.2810    6.1550   54.3090 O.co2 251  ASP251     -0.2456
    175  OD2       39.9390    7.9660   53.1180 O.co2 251  ASP251     -0.2456
    176  N         37.0830    9.7750   50.5520 N.3   264  THR264     -0.1218
    177  CA        36.2070   10.1990   51.6370 C.3   264  THR264      0.1862
    178  C         35.6370   11.5790   51.3140 C.2   264  THR264      0.2287
    179  O         36.3780   12.5080   50.9860 O.2   264  THR264     -0.2866
    180  CB        36.9730   10.2740   52.9780 C.3   264  THR264      0.1770
    181  OG1       37.3750    8.9560   53.3670 O.3   264  THR264     -0.2211
    182  CG2       36.0980   10.8810   54.0650 C.3   264  THR264      0.0375
    183  N         33.5920   14.8650   52.7720 N.3   266  GLU266     -0.1245
    184  CA        33.1090   15.6160   53.9240 C.3   266  GLU266      0.1567
    185  C         32.1540   16.6760   53.3950 C.2   266  GLU266      0.2260
    186  O         32.5820   17.6160   52.7280 O.2   266  GLU266     -0.2867
    187  CB        34.2830   16.2920   54.6480 C.3   266  GLU266      0.0388
    188  CG        35.2370   15.3210   55.3330 C.3   266  GLU266      0.1160
    189  CD        34.6150   14.6420   56.5470 C.2   266  GLU266      0.3649
    190  OE1       33.5320   15.0780   56.9880 O.co2 266  GLU266     -0.2457
    191  OE2       35.2120   13.6700   57.0590 O.co2 266  GLU266     -0.2457
    192  N         31.0740   24.2460   56.9800 N.3   270  LYS270     -0.1245
    193  CA        32.4420   24.4970   57.4230 C.3   270  LYS270      0.1561
    194  C         32.4860   24.7790   58.9200 C.2   270  LYS270      0.2260
    195  O         33.5290   25.1490   59.4580 O.2   270  LYS270     -0.2867
    196  CB        33.0410   25.6820   56.6600 C.3   270  LYS270      0.0271
    197  CG        33.1850   25.4500   55.1610 C.3   270  LYS270      0.0035
    198  CD        34.2610   24.4170   54.8540 C.3   270  LYS270      0.0206
    199  CE        35.6550   24.9250   55.2060 C.3   270  LYS270      0.1093
    200  NZ        36.0330   26.1310   54.4160 N.3   270  LYS270     -0.1314
    201  N         27.8240   19.5160   62.6090 N.3   275  PHE275     -0.1241
    202  CA        27.0670   18.2770   62.4560 C.3   275  PHE275      0.1605
    203  C         25.5680   18.5420   62.4460 C.2   275  PHE275      0.2264
    204  O         24.7910   17.7340   61.9390 O.2   275  PHE275     -0.2867
    205  CB        27.3900   17.3120   63.5970 C.3   275  PHE275      0.0534
    206  CG        28.8420   16.9520   63.6930 C.ar  275  PHE275     -0.0203
    207  CD1       29.4740   16.2860   62.6570 C.ar  275  PHE275     -0.0042
    208  CD2       29.5750   17.2780   64.8230 C.ar  275  PHE275     -0.0042
    209  CE1       30.8110   15.9500   62.7440 C.ar  275  PHE275     -0.0003
    210  CE2       30.9090   16.9460   64.9160 C.ar  275  PHE275     -0.0003
    211  CZ        31.5290   16.2790   63.8730 C.ar  275  PHE275     -0.0000
@<TRIPOS>BOND
     1   117   116    2
     2   116   115    1
     3   114   115    1
     4   176   177    1
     5   108   109    2
     6   108   107    1
     7   115   118    1
     8   179   178    2
     9   171   170    2
    10   178   177    1
    11   107   106    1
    12   107   110    1
    13   177   180    1
    14   118   119    1
    15   170   169    1
    16   172   169    1
    17   172   173    1
    18   169   168    1
    19   110   111    1
    20   186   185    2
    21   128   129    1
    22   183   184    1
    23   180   181    1
    24   180   182    1
    25   121   119    1
    26   175   173   ar
    27   119   120    1
    28   173   174   ar
    29   185   184    1
    30   111   112    1
    31   184   187    1
    32   129   130    1
    33   200   199    1
    34   103   102    2
    35   187   188    1
    36   122   123    1
    37   112   113    1
    38    72    73    1
    39   102   101    1
    40   198   197    1
    41   198   199    1
    42    75    74    2
    43   130   131    2
    44   197   196    1
    45   188   189    1
    46   127   126    1
    47   123   126    1
    48   123   124    1
    49    74    73    1
    50    74    82   am
    51    73    76    1
    52   167   166    2
    53    79    81   ar
    54    79    77   ar
    55   101   100    1
    56   101   104    1
    57   132   133    1
    58   189   190   ar
    59   189   191   ar
    60   100    90   am
    61   196   193    1
    62    76    77    1
    63   166   165    1
    64   104   105    1
    65   192   193    1
    66    81    80   ar
    67    77    78   ar
    68   124   125    2
    69    82    83    1
    70   137   139    1
    71   137   136    1
    72    83    86    1
    73    83    84    1
    74    86    87    1
    75   193   194    1
    76    90    89    1
    77    90    91    2
    78   165   164    1
    79   133   136    1
    80   133   134    1
    81    89    92    1
    82    89    88    1
    83   136   138    1
    84    48    47    2
    85    80    78   ar
    86    92    93    1
    87    84    88   am
    88    84    85    2
    89    49    47   am
    90    25    24    2
    91   134   140   am
    92   134   135    2
    93   194   195    2
    94   140   141    1
    95    47    46    1
    96    30    28   ar
    97   143   142    2
    98   162   161    2
    99    95    93   ar
   100    95    97   ar
   101    93    94   ar
   102   142   141    1
   103   142   152   am
   104    24    23    1
   105   141   144    1
   106    26    23    1
   107    26    27    1
   108   153   152    1
   109   153   156    1
   110   153   154    1
   111   152   158    1
   112   157   158    1
   113   157   156    1
   114    28    27    1
   115    28    29   ar
   116   159   154   am
   117   159   160    1
   118    46    43    1
   119   161   160    1
   120    23    22    1
   121    43    44    1
   122    43    42    1
   123     1     2    1
   124    45    44    2
   125    97    98   ar
   126   154   155    2
   127    94    96   ar
   128   163   160    1
   129   144   145    1
   130     7     9   ar
   131     7     6   ar
   132    44    50   am
   133     4     3    2
   134     9    10   ar
   135   204   203    2
   136    22    13   am
   137   146   145   ar
   138   146   148   ar
   139     5     2    1
   140     5     6    1
   141    98    96   ar
   142    98    99    1
   143     2     3    1
   144     6     8   ar
   145   145   147   ar
   146    59    58    1
   147   203   202    1
   148   202   201    1
   149   202   205    1
   150    50    51    1
   151    10     8   ar
   152   207   209   ar
   153   207   206   ar
   154   209   211   ar
   155    14    13    2
   156   148   150   ar
   157    13    12    1
   158    51    52    1
   159    51    54    1
   160    58    60    1
   161    58    57    2
   162    52    53    2
   163   147   149   ar
   164   205   206    1
   165   206   208   ar
   166    56    57    1
   167    56    55    1
   168   211   210   ar
   169   150   149   ar
   170   150   151    1
   171    41    39    1
   172    40    39    1
   173    11    12    1
   174    12    15    1
   175    54    55    1
   176    39    38    2
   177   208   210   ar
   178    16    15    1
   179    16    17    1
   180    62    61    1
   181    62    63    1
   182    64    63    2
   183    34    33    2
   184    38    37    1
   185    18    17    1
   186    18    19    2
   187    36    37    1
   188    36    35    1
   189    21    19    1
   190    33    32    1
   191    19    20    1
   192    32    35    1
   193    32    31    1
   194    71    69    1
   195    69    66    1
   196    69    70    1
   197    68    67    2
   198    66    67    1
   199    66    65    1
