@<TRIPOS>MOLECULE
tmp/2pjcA00.pdb
 217 204 0 0 0
SMALL
GASTEIGER

@<TRIPOS>ATOM
      1  N         29.7420    7.3650   60.7890 N.3    64  HIS64      -0.1241
      2  CA        29.7450    8.0730   62.0610 C.3    64  HIS64       0.1621
      3  C         28.3480    8.5890   62.4170 C.2    64  HIS64       0.2264
      4  O         27.6950    9.2640   61.6210 O.2    64  HIS64      -0.2867
      5  CB        30.7520    9.2260   62.0080 C.3    64  HIS64       0.0745
      6  CG        32.1830    8.7760   61.9660 C.ar   64  HIS64       0.0817
      7  ND1       33.0800    9.3040   61.0720 N.ar   64  HIS64      -0.2268
      8  CD2       32.8150    7.8620   62.7450 C.ar   64  HIS64       0.1154
      9  CE1       34.2310    8.7120   61.3250 C.ar   64  HIS64       0.1986
     10  NE2       34.1230    7.8310   62.3280 N.ar   64  HIS64      -0.2212
     11  N         26.7470   10.8000   64.2770 N.3    66  ARG66      -0.1231
     12  CA        26.2670   12.1780   64.3490 C.3    66  ARG66       0.1694
     13  C         26.2850   12.9080   63.0120 C.2    66  ARG66       0.2591
     14  O         25.7920   14.0320   62.9100 O.2    66  ARG66      -0.2718
     15  CB        27.0950   12.9670   65.3630 C.3    66  ARG66       0.0321
     16  CG        28.5600   13.1010   65.0010 C.3    66  ARG66       0.0489
     17  CD        29.3460   13.6030   66.1930 C.3    66  ARG66       0.2205
     18  NE        30.7720   13.7050   65.9130 N.pl3  66  ARG66      -0.0865
     19  CZ        31.7020   13.8140   66.8550 C.cat  66  ARG66       0.5346
     20  NH1       31.3480   13.8300   68.1360 N.pl3  66  ARG66       0.1354
     21  NH2       32.9840   13.9070   66.5180 N.pl3  66  ARG66       0.1354
     22  N         26.8510   12.2780   61.9860 N.am   67  GLU67      -0.1979
     23  CA        27.0010   12.9340   60.6920 C.3    67  GLU67       0.1602
     24  C         25.7690   12.7070   59.8240 C.2    67  GLU67       0.2287
     25  O         25.8240   12.0360   58.7920 O.2    67  GLU67      -0.2864
     26  CB        28.2720   12.4290   60.0030 C.3    67  GLU67       0.0415
     27  CG        29.5340   12.8870   60.7300 C.3    67  GLU67       0.1163
     28  CD        30.7780   12.1310   60.3200 C.2    67  GLU67       0.3649
     29  OE1       31.7700   12.1950   61.0800 O.co2  67  GLU67      -0.2457
     30  OE2       30.7740   11.4800   59.2500 O.co2  67  GLU67      -0.2457
     31  N         29.3440    9.3300   68.2010 N.3   122  ARG122     -0.1245
     32  CA        30.1680    9.1010   67.0120 C.3   122  ARG122      0.1563
     33  C         30.3450    7.6110   66.7360 C.2   122  ARG122      0.2260
     34  O         30.1520    7.1400   65.6130 O.2   122  ARG122     -0.2867
     35  CB        31.5450    9.7450   67.2180 C.3   122  ARG122      0.0307
     36  CG        32.5870    9.4270   66.1500 C.3   122  ARG122      0.0489
     37  CD        33.9270   10.0300   66.5500 C.3   122  ARG122      0.2205
     38  NE        35.0290    9.6270   65.6770 N.pl3 122  ARG122     -0.0865
     39  CZ        35.2740   10.1720   64.4900 C.cat 122  ARG122      0.5346
     40  NH1       34.4910   11.1400   64.0330 N.pl3 122  ARG122      0.1354
     41  NH2       36.3130    9.7640   63.7690 N.pl3 122  ARG122      0.1354
     42  N         35.8490    4.0270   61.7740 N.3   139  ASN139     -0.1225
     43  CA        36.8550    4.4680   60.8150 C.3   139  ASN139      0.1785
     44  C         38.2610    4.5130   61.4110 C.2   139  ASN139      0.2597
     45  O         39.1520    5.1720   60.8700 O.2   139  ASN139     -0.2718
     46  CB        36.5030    5.8390   60.2370 C.3   139  ASN139      0.1169
     47  CG        36.9740    5.9820   58.8060 C.2   139  ASN139      0.2627
     48  OD1       37.0660    4.9890   58.0930 O.2   139  ASN139     -0.2716
     49  ND2       37.2850    7.2070   58.3820 N.am  139  ASN139     -0.0877
     50  N         38.4420    3.8230   62.5320 N.am  140  ARG140     -0.1979
     51  CA        39.7710    3.5460   63.0700 C.3   140  ARG140      0.1597
     52  C         39.9410    2.0330   63.1680 C.2   140  ARG140      0.2287
     53  O         40.9230    1.5410   63.7200 O.2   140  ARG140     -0.2864
     54  CB        39.9250    4.1640   64.4630 C.3   140  ARG140      0.0334
     55  CG        39.8220    5.6850   64.4890 C.3   140  ARG140      0.0492
     56  CD        40.9620    6.3360   63.7260 C.3   140  ARG140      0.2205
     57  NE        40.8850    7.7900   63.8140 N.pl3 140  ARG140     -0.0865
     58  CZ        40.0770    8.5340   63.0660 C.cat 140  ARG140      0.5346
     59  NH1       39.2830    7.9570   62.1740 N.pl3 140  ARG140      0.1354
     60  NH2       40.0560    9.8520   63.2170 N.pl3 140  ARG140      0.1354
     61  N         46.8760    8.7990   65.0930 N.3   150  GLY150     -0.1225
     62  CA        45.6070    9.5040   65.0900 C.3   150  GLY150      0.1811
     63  C         44.4670    8.6440   65.5980 C.2   150  GLY150      0.2280
     64  O         43.3220    8.8130   65.1830 O.2   150  GLY150     -0.2866
     65  N         36.8900    8.9050   71.7460 N.3   158  GLU158     -0.1231
     66  CA        36.0840    8.9980   70.5340 C.3   158  GLU158      0.1699
     67  C         36.7280    8.3420   69.3160 C.2   158  GLU158      0.2592
     68  O         36.0360    7.9870   68.3620 O.2   158  GLU158     -0.2718
     69  CB        35.7840   10.4660   70.2170 C.3   158  GLU158      0.0402
     70  CG        34.8770   11.1490   71.2320 C.3   158  GLU158      0.1161
     71  CD        33.5270   10.4630   71.3750 C.2   158  GLU158      0.3649
     72  OE1       33.2260    9.5490   70.5770 O.co2 158  GLU158     -0.2457
     73  OE2       32.7630   10.8380   72.2900 O.co2 158  GLU158     -0.2457
     74  N         38.0500    8.1900   69.3350 N.am  159  THR159     -0.1953
     75  CA        38.7300    7.5520   68.2110 C.3   159  THR159      0.1897
     76  C         39.2800    6.1820   68.5740 C.2   159  THR159      0.2313
     77  O         40.2510    5.7210   67.9760 O.2   159  THR159     -0.2863
     78  CB        39.8900    8.4160   67.6830 C.3   159  THR159      0.1794
     79  OG1       40.8340    8.6520   68.7360 O.3   159  THR159     -0.2208
     80  CG2       39.3610    9.7450   67.1550 C.3   159  THR159      0.0378
     81  N         31.0070   11.2400   54.6430 N.3   192  HIS192     -0.1226
     82  CA        31.0750   11.7490   56.0150 C.3   192  HIS192      0.1752
     83  C         30.6720   13.2290   56.0260 C.2   192  HIS192      0.2597
     84  O         30.4160   13.8190   54.9770 O.2   192  HIS192     -0.2718
     85  CB        32.5070   11.6320   56.5610 C.3   192  HIS192      0.0759
     86  CG        32.9760   10.2240   56.7870 C.ar  192  HIS192      0.0818
     87  ND1       33.2860    9.7660   58.0450 N.ar  192  HIS192     -0.2268
     88  CD2       33.1950    9.2350   55.8850 C.ar  192  HIS192      0.1154
     89  CE1       33.6830    8.5190   57.8870 C.ar  192  HIS192      0.1986
     90  NE2       33.6460    8.1500   56.5960 N.ar  192  HIS192     -0.2212
     91  N         30.6210   13.8250   57.2140 N.am  193  SER193     -0.1938
     92  CA        30.6430   15.2850   57.3470 C.3   193  SER193      0.2055
     93  C         31.4050   15.6300   58.6320 C.2   193  SER193      0.2643
     94  O         31.6030   14.7560   59.4750 O.2   193  SER193     -0.2714
     95  CB        29.2100   15.8350   57.4080 C.3   193  SER193      0.2130
     96  OG        28.5860   15.5230   58.6420 O.3   193  SER193     -0.2179
     97  N         31.8510   16.8770   58.8010 N.am  194  TYR194     -0.1959
     98  CA        31.7390   17.9540   57.8200 C.3   194  TYR194      0.1771
     99  C         33.1550   18.4290   57.4810 C.2   194  TYR194      0.2620
    100  O         34.1200   17.9630   58.0820 O.2   194  TYR194     -0.2715
    101  CB        30.9540   19.1150   58.4300 C.3   194  TYR194      0.0574
    102  CG        31.5810   19.6200   59.7150 C.ar  194  TYR194     -0.0198
    103  CD1       31.3560   18.9690   60.9230 C.ar  194  TYR194     -0.0009
    104  CD2       32.4290   20.7220   59.7130 C.ar  194  TYR194     -0.0009
    105  CE1       31.9620   19.3970   62.0900 C.ar  194  TYR194      0.0417
    106  CE2       33.0380   21.1570   60.8780 C.ar  194  TYR194      0.0417
    107  CZ        32.7990   20.4890   62.0600 C.ar  194  TYR194      0.1957
    108  OH        33.4020   20.9180   63.2200 O.3   194  TYR194     -0.2866
    109  N         33.2630   19.3580   56.5310 N.am  195  SER195     -0.1950
    110  CA        34.5230   20.0490   56.2070 C.3   195  SER195      0.1924
    111  C         34.5620   20.5320   54.7610 C.2   195  SER195      0.2314
    112  O         35.4150   21.3440   54.3960 O.2   195  SER195     -0.2863
    113  CB        35.7440   19.1480   56.4350 C.3   195  SER195      0.2116
    114  OG        36.2890   19.3510   57.7230 O.3   195  SER195     -0.2180
    115  N         35.3360   18.6490   51.9190 N.3   197  MET197     -0.1245
    116  CA        36.5670   18.1490   51.3210 C.3   197  MET197      0.1570
    117  C         36.3290   16.8540   50.5610 C.2   197  MET197      0.2261
    118  O         35.3990   16.1050   50.8600 O.2   197  MET197     -0.2867
    119  CB        37.6250   17.8890   52.3940 C.3   197  MET197      0.0387
    120  CG        38.0460   19.1050   53.1860 C.3   197  MET197      0.0595
    121  SD        39.2730   18.6700   54.4300 S.3   197  MET197     -0.1393
    122  CE        39.3730   20.2050   55.3430 C.3   197  MET197      0.0692
    123  N         38.8960   13.7560   50.1680 N.3   199  LEU199     -0.1245
    124  CA        40.2070   13.2280   50.5330 C.3   199  LEU199      0.1561
    125  C         40.4740   11.9140   49.8110 C.2   199  LEU199      0.2260
    126  O         39.5470   11.1530   49.5280 O.2   199  LEU199     -0.2867
    127  CB        40.2940   12.9930   52.0460 C.3   199  LEU199      0.0270
    128  CG        40.0950   14.1770   52.9970 C.3   199  LEU199      0.0019
    129  CD1       40.8660   15.3830   52.4670 C.3   199  LEU199      0.0001
    130  CD2       38.6110   14.4960   53.1350 C.3   199  LEU199      0.0001
    131  N         45.9340    8.4520   54.7690 N.3   203  SER203     -0.1217
    132  CA        45.8190    9.1110   56.0600 C.3   203  SER203      0.1889
    133  C         46.6570    8.4330   57.1410 C.2   203  SER203      0.2288
    134  O         47.1080    9.0940   58.0750 O.2   203  SER203     -0.2866
    135  CB        44.3550    9.1620   56.5100 C.3   203  SER203      0.2089
    136  OG        43.6120   10.0750   55.7150 O.3   203  SER203     -0.2183
    137  N         43.8290   17.0660   56.0790 N.3   243  ILE243     -0.1231
    138  CA        43.0170   17.2430   57.2730 C.3   243  ILE243      0.1692
    139  C         43.7580   16.8290   58.5480 C.2   243  ILE243      0.2592
    140  O         43.9660   17.6500   59.4410 O.2   243  ILE243     -0.2718
    141  CB        41.6800   16.4720   57.1370 C.3   243  ILE243      0.0266
    142  CG1       40.7580   16.8240   58.2990 C.3   243  ILE243      0.0019
    143  CG2       41.9310   14.9740   57.0710 C.3   243  ILE243      0.0020
    144  CD1       39.3080   16.5020   58.0190 C.3   243  ILE243      0.0001
    145  N         44.1650   15.5650   58.6240 N.am  244  TYR244     -0.1976
    146  CA        45.0460   15.1040   59.6910 C.3   244  TYR244      0.1639
    147  C         45.4320   13.6450   59.4970 C.2   244  TYR244      0.2290
    148  O         44.7300   12.8910   58.8250 O.2   244  TYR244     -0.2864
    149  CB        44.3880   15.2920   61.0680 C.3   244  TYR244      0.0560
    150  CG        42.9400   14.8450   61.1760 C.ar  244  TYR244     -0.0198
    151  CD1       42.5920   13.5000   61.1160 C.ar  244  TYR244     -0.0009
    152  CD2       41.9250   15.7740   61.3690 C.ar  244  TYR244     -0.0009
    153  CE1       41.2660   13.0920   61.2490 C.ar  244  TYR244      0.0417
    154  CE2       40.6000   15.3790   61.5040 C.ar  244  TYR244      0.0417
    155  CZ        40.2750   14.0390   61.4440 C.ar  244  TYR244      0.1957
    156  OH        38.9580   13.6540   61.5870 O.3   244  TYR244     -0.2866
    157  N         45.6570    9.7840   60.4710 N.3   246  ALA246     -0.1245
    158  CA        44.7450    8.9090   61.1990 C.3   246  ALA246      0.1562
    159  C         44.7250    7.5200   60.5770 C.2   246  ALA246      0.2260
    160  O         44.4280    7.3620   59.3890 O.2   246  ALA246     -0.2867
    161  CB        43.3400    9.4990   61.1990 C.3   246  ALA246      0.0290
    162  N         41.4460    3.7380   58.6320 N.3   249  GLY249     -0.1225
    163  CA        40.2870    4.1900   57.8780 C.3   249  GLY249      0.1811
    164  C         39.9420    3.2710   56.7190 C.2   249  GLY249      0.2280
    165  O         40.8140    2.5800   56.1870 O.2   249  GLY249     -0.2866
    166  N         38.8910    4.0790   53.6850 N.3   251  ASP251     -0.1225
    167  CA        39.3520    4.5440   52.3840 C.3   251  ASP251      0.1805
    168  C         40.7630    4.0360   52.0930 C.2   251  ASP251      0.2597
    169  O         41.0270    3.5210   51.0020 O.2   251  ASP251     -0.2718
    170  CB        39.2970    6.0820   52.2820 C.3   251  ASP251      0.1424
    171  CG        40.0290    6.7900   53.4150 C.2   251  ASP251      0.3668
    172  OD1       40.5050    6.1180   54.3510 O.co2 251  ASP251     -0.2456
    173  OD2       40.1190    8.0380   53.3610 O.co2 251  ASP251     -0.2456
    174  N         41.6550    4.1510   53.0720 N.am  252  ASP252     -0.1974
    175  CA        43.0190    3.6480   52.9140 C.3   252  ASP252      0.1709
    176  C         43.0230    2.1280   52.7690 C.2   252  ASP252      0.2293
    177  O         43.7810    1.5770   51.9720 O.2   252  ASP252     -0.2864
    178  CB        43.8850    4.0390   54.1130 C.3   252  ASP252      0.1436
    179  CG        44.2250    5.5160   54.1380 C.2   252  ASP252      0.3671
    180  OD1       43.9400    6.2160   53.1450 O.co2 252  ASP252     -0.2456
    181  OD2       44.7860    5.9720   55.1570 O.co2 252  ASP252     -0.2456
    182  N         37.1900    9.7060   50.5250 N.3   264  THR264     -0.1218
    183  CA        36.3070   10.1080   51.6130 C.3   264  THR264      0.1862
    184  C         35.7350   11.4760   51.2660 C.2   264  THR264      0.2287
    185  O         36.4830   12.4160   50.9890 O.2   264  THR264     -0.2866
    186  CB        37.0770   10.2140   52.9490 C.3   264  THR264      0.1770
    187  OG1       37.5330    8.9140   53.3400 O.3   264  THR264     -0.2211
    188  CG2       36.1800   10.7870   54.0460 C.3   264  THR264      0.0375
    189  N         33.7060   14.7200   52.6350 N.3   266  GLU266     -0.1245
    190  CA        33.2300   15.4610   53.7980 C.3   266  GLU266      0.1567
    191  C         32.2870   16.5480   53.3050 C.2   266  GLU266      0.2260
    192  O         32.7130   17.4800   52.6310 O.2   266  GLU266     -0.2867
    193  CB        34.4080   16.0940   54.5470 C.3   266  GLU266      0.0388
    194  CG        35.3040   15.0960   55.2750 C.3   266  GLU266      0.1160
    195  CD        34.6240   14.4530   56.4680 C.2   266  GLU266      0.3649
    196  OE1       33.5210   14.9050   56.8350 O.co2 266  GLU266     -0.2457
    197  OE2       35.1950   13.4950   57.0410 O.co2 266  GLU266     -0.2457
    198  N         31.3990   23.9830   57.0300 N.3   270  LYS270     -0.1245
    199  CA        32.7770   24.1960   57.4610 C.3   270  LYS270      0.1561
    200  C         32.8490   24.4600   58.9640 C.2   270  LYS270      0.2260
    201  O         33.9100   24.7880   59.4980 O.2   270  LYS270     -0.2867
    202  CB        33.3940   25.3690   56.6950 C.3   270  LYS270      0.0271
    203  CG        33.5060   25.1430   55.1910 C.3   270  LYS270      0.0035
    204  CD        34.6870   24.2450   54.8540 C.3   270  LYS270      0.0206
    205  CE        36.0100   24.9110   55.2180 C.3   270  LYS270      0.1093
    206  NZ        37.1430   23.9440   55.2390 N.3   270  LYS270     -0.1314
    207  N         28.0860   19.2710   62.6480 N.3   275  PHE275     -0.1241
    208  CA        27.2980   18.0570   62.4690 C.3   275  PHE275      0.1605
    209  C         25.8000   18.3360   62.4660 C.2   275  PHE275      0.2264
    210  O         25.0130   17.5310   61.9630 O.2   275  PHE275     -0.2867
    211  CB        27.6200   17.0520   63.5810 C.3   275  PHE275      0.0534
    212  CG        29.0770   16.7080   63.6810 C.ar  275  PHE275     -0.0203
    213  CD1       29.7350   16.1150   62.6170 C.ar  275  PHE275     -0.0042
    214  CD2       29.7920   16.9800   64.8390 C.ar  275  PHE275     -0.0042
    215  CE1       31.0790   15.7980   62.7010 C.ar  275  PHE275     -0.0003
    216  CE2       31.1340   16.6670   64.9320 C.ar  275  PHE275     -0.0003
    217  CZ        31.7810   16.0740   63.8580 C.ar  275  PHE275     -0.0000
@<TRIPOS>BOND
     1   126   125    2
     2   125   124    1
     3   123   124    1
     4   182   183    1
     5   124   127    1
     6   117   118    2
     7   117   116    1
     8   185   184    2
     9   169   168    2
    10   184   183    1
    11   116   115    1
    12   116   119    1
    13   183   186    1
    14   177   176    2
    15   127   128    1
    16   168   167    1
    17   168   174   am
    18   170   167    1
    19   170   171    1
    20   167   166    1
    21   119   120    1
    22   129   128    1
    23   192   191    2
    24   189   190    1
    25   176   175    1
    26   175   174    1
    27   175   178    1
    28   186   187    1
    29   186   188    1
    30   128   130    1
    31   180   179   ar
    32   120   121    1
    33   191   190    1
    34   173   171   ar
    35   171   172   ar
    36   190   193    1
    37   178   179    1
    38   179   181   ar
    39   112   111    2
    40   121   122    1
    41   193   194    1
    42    81    82    1
    43   111   110    1
    44   131   132    1
    45   204   203    1
    46   204   205    1
    47    84    83    2
    48   203   202    1
    49   205   206    1
    50   194   195    1
    51   136   135    1
    52    88    90   ar
    53    88    86   ar
    54    82    83    1
    55    82    85    1
    56    83    91   am
    57   132   135    1
    58   132   133    1
    59   137   138    1
    60   165   164    2
    61   110   113    1
    62   110   109    1
    63   113   114    1
    64   195   196   ar
    65   195   197   ar
    66   109    99   am
    67    85    86    1
    68    90    89   ar
    69   202   199    1
    70   164   163    1
    71    86    87   ar
    72   198   199    1
    73   143   141    1
    74   141   138    1
    75   141   142    1
    76   133   134    2
    77    91    92    1
    78   138   139    1
    79    92    95    1
    80    92    93    1
    81    95    96    1
    82   199   200    1
    83    99    98    1
    84    99   100    2
    85    98   101    1
    86    98    97    1
    87   163   162    1
    88    89    87   ar
    89   144   142    1
    90    48    47    2
    91    49    47   am
    92   101   102    1
    93   139   145   am
    94   139   140    2
    95   145   146    1
    96    93    97   am
    97    93    94    2
    98    25    24    2
    99    47    46    1
   100   148   147    2
   101   200   201    2
   102    30    28   ar
   103   160   159    2
   104   147   146    1
   105   146   149    1
   106   104   102   ar
   107   104   106   ar
   108   102   103   ar
   109    24    23    1
   110    26    23    1
   111    26    27    1
   112    46    43    1
   113    28    27    1
   114    28    29   ar
   115   157   158    1
   116   159   158    1
   117    23    22    1
   118     1     2    1
   119    43    44    1
   120    43    42    1
   121    45    44    2
   122   106   107   ar
   123   103   105   ar
   124   149   150    1
   125     7     9   ar
   126     7     6   ar
   127   151   150   ar
   128   151   153   ar
   129   150   152   ar
   130   158   161    1
   131   153   155   ar
   132     9    10   ar
   133   152   154   ar
   134    44    50   am
   135   155   154   ar
   136   155   156    1
   137     4     3    2
   138   210   209    2
   139     6     5    1
   140     6     8   ar
   141    22    13   am
   142     5     2    1
   143   107   105   ar
   144   107   108    1
   145     2     3    1
   146    59    58    1
   147    10     8   ar
   148   209   208    1
   149   208   207    1
   150   208   211    1
   151    50    51    1
   152   213   215   ar
   153   213   212   ar
   154   215   217   ar
   155    14    13    2
   156    13    12    1
   157    58    60    1
   158    58    57    2
   159    51    52    1
   160    51    54    1
   161    52    53    2
   162   211   212    1
   163   212   214   ar
   164    56    57    1
   165    56    55    1
   166    41    39    1
   167   217   216   ar
   168    40    39    1
   169    11    12    1
   170    12    15    1
   171    54    55    1
   172    39    38    2
   173   214   216   ar
   174    16    15    1
   175    16    17    1
   176    62    61    1
   177    62    63    1
   178    64    63    2
   179    34    33    2
   180    38    37    1
   181    18    17    1
   182    18    19    2
   183    36    37    1
   184    36    35    1
   185    21    19    1
   186    33    32    1
   187    19    20    1
   188    32    35    1
   189    32    31    1
   190    80    78    1
   191    78    75    1
   192    78    79    1
   193    77    76    2
   194    75    76    1
   195    75    74    1
   196    68    67    2
   197    67    74   am
   198    67    66    1
   199    69    66    1
   200    69    70    1
   201    66    65    1
   202    72    71   ar
   203    70    71    1
   204    71    73   ar
