@<TRIPOS>MOLECULE
tmp/2pjlB00.pdb
 176 163 0 0 0
SMALL
GASTEIGER

@<TRIPOS>ATOM
      1  N         -5.2430   10.3160  -32.9340 N.3    31  VAL31      -0.1245
      2  CA        -5.5330   10.5700  -31.5080 C.3    31  VAL31       0.1561
      3  C         -5.9230   12.0290  -31.2500 C.2    31  VAL31       0.2260
      4  O         -6.8310   12.3040  -30.4620 O.2    31  VAL31      -0.2867
      5  CB        -4.3570   10.1280  -30.5890 C.3    31  VAL31       0.0252
      6  CG1       -4.5700   10.6040  -29.1490 C.3    31  VAL31       0.0019
      7  CG2       -4.1960    8.6240  -30.6280 C.3    31  VAL31       0.0019
      8  N         -9.5100   12.1520  -31.8520 N.3    34  LEU34      -0.1245
      9  CA       -10.2180   11.5300  -30.7300 C.3    34  LEU34       0.1561
     10  C        -10.1430   12.3980  -29.4660 C.2    34  LEU34       0.2260
     11  O        -11.1060   12.4660  -28.6990 O.2    34  LEU34      -0.2867
     12  CB        -9.6930   10.1140  -30.4630 C.3    34  LEU34       0.0270
     13  CG        -9.6310    9.1710  -31.6720 C.3    34  LEU34       0.0019
     14  CD1       -8.7990    7.9240  -31.3820 C.3    34  LEU34       0.0001
     15  CD2      -11.0350    8.8160  -32.1690 C.3    34  LEU34       0.0001
     16  N        -12.7210   15.0690  -29.9800 N.3    37  LEU37      -0.1231
     17  CA       -14.0240   14.4720  -29.6890 C.3    37  LEU37       0.1693
     18  C        -14.2930   14.4350  -28.1870 C.2    37  LEU37       0.2592
     19  O        -15.3590   14.8570  -27.7420 O.2    37  LEU37      -0.2718
     20  CB       -14.1190   13.0620  -30.2830 C.3    37  LEU37       0.0284
     21  CG       -15.4530   12.3230  -30.1210 C.3    37  LEU37       0.0019
     22  CD1      -16.6180   13.1420  -30.6740 C.3    37  LEU37       0.0001
     23  CD2      -15.3910   10.9610  -30.7750 C.3    37  LEU37       0.0001
     24  N        -13.3200   13.9380  -27.4190 N.am   38  PHE38      -0.1976
     25  CA       -13.4240   13.8570  -25.9530 C.3    38  PHE38       0.1639
     26  C        -13.7010   15.2360  -25.3360 C.2    38  PHE38       0.2290
     27  O        -14.6040   15.3840  -24.5170 O.2    38  PHE38      -0.2864
     28  CB       -12.1450   13.2210  -25.3690 C.3    38  PHE38       0.0560
     29  CG       -12.2540   12.8050  -23.9190 C.ar   38  PHE38      -0.0200
     30  CD1      -13.3560   12.0930  -23.4510 C.ar   38  PHE38      -0.0042
     31  CD2      -11.2280   13.1040  -23.0260 C.ar   38  PHE38      -0.0042
     32  CE1      -13.4390   11.6970  -22.1200 C.ar   38  PHE38      -0.0003
     33  CE2      -11.3060   12.7150  -21.6820 C.ar   38  PHE38      -0.0003
     34  CZ       -12.4120   12.0050  -21.2330 C.ar   38  PHE38      -0.0000
     35  N        -17.2460   16.1530  -26.0360 N.3    41  GLU41      -0.1245
     36  CA       -18.0680   15.3130  -25.1560 C.3    41  GLU41       0.1567
     37  C        -18.2160   15.8560  -23.7270 C.2    41  GLU41       0.2260
     38  O        -19.2470   15.6570  -23.0930 O.2    41  GLU41      -0.2867
     39  CB       -17.5200   13.8830  -25.1020 C.3    41  GLU41       0.0388
     40  CG       -17.8590   13.0550  -26.3230 C.3    41  GLU41       0.1160
     41  CD       -17.1650   11.7140  -26.3330 C.2    41  GLU41       0.3649
     42  OE1      -17.7650   10.7420  -26.8350 O.co2  41  GLU41      -0.2457
     43  OE2      -16.0210   11.6280  -25.8460 O.co2  41  GLU41      -0.2457
     44  N        -19.4070   10.4890  -16.7740 N.3    72  MET72      -0.1245
     45  CA       -19.0570    9.3470  -17.6280 C.3    72  MET72       0.1570
     46  C        -20.1880    8.3130  -17.7480 C.2    72  MET72       0.2261
     47  O        -20.2350    7.5470  -18.7120 O.2    72  MET72      -0.2867
     48  CB       -17.7580    8.6740  -17.1530 C.3    72  MET72       0.0387
     49  CG       -17.1330    7.7510  -18.2010 C.3    72  MET72       0.0595
     50  SD       -16.7190    8.6030  -19.7490 S.3    72  MET72      -0.1393
     51  CE       -15.2030    9.4140  -19.2650 C.3    72  MET72       0.0692
     52  N        -22.2250    9.8140  -20.5860 N.3    75  LEU75      -0.1231
     53  CA       -21.5610    9.5660  -21.8680 C.3    75  LEU75       0.1693
     54  C        -21.6920    8.1360  -22.3180 C.2    75  LEU75       0.2591
     55  O        -22.0740    7.8710  -23.4590 O.2    75  LEU75      -0.2718
     56  CB       -20.0840    9.9390  -21.7960 C.3    75  LEU75       0.0284
     57  CG       -19.7850   11.4240  -21.9490 C.3    75  LEU75       0.0019
     58  CD1      -18.2940   11.6040  -21.9040 C.3    75  LEU75       0.0001
     59  CD2      -20.3650   11.9670  -23.2610 C.3    75  LEU75       0.0001
     60  N        -21.3640    7.2160  -21.4150 N.am   76  VAL76      -0.1980
     61  CA       -21.4510    5.7900  -21.6870 C.3    76  VAL76       0.1595
     62  C        -22.8650    5.3990  -22.1280 C.2    76  VAL76       0.2287
     63  O        -23.0220    4.5800  -23.0430 O.2    76  VAL76      -0.2864
     64  CB       -20.9770    4.9470  -20.4610 C.3    76  VAL76       0.0276
     65  CG1      -21.4340    3.5290  -20.5720 C.3    76  VAL76       0.0022
     66  CG2      -19.4430    5.0080  -20.3180 C.3    76  VAL76       0.0022
     67  N        -23.4690    6.5210  -25.6940 N.3    79  VAL79      -0.1245
     68  CA       -22.8360    5.5580  -26.6110 C.3    79  VAL79       0.1561
     69  C        -23.6420    4.2670  -26.7310 C.2    79  VAL79       0.2260
     70  O        -23.7910    3.7320  -27.8360 O.2    79  VAL79      -0.2867
     71  CB       -21.3470    5.2350  -26.2290 C.3    79  VAL79       0.0252
     72  CG1      -20.7170    4.2650  -27.2270 C.3    79  VAL79       0.0019
     73  CG2      -20.5210    6.4950  -26.1770 C.3    79  VAL79       0.0019
     74  N        -19.2930    5.2910  -31.2420 N.3    92  PHE92      -0.1241
     75  CA       -18.5590    6.2660  -30.4350 C.3    92  PHE92       0.1605
     76  C        -18.7670    7.6740  -30.9710 C.2    92  PHE92       0.2264
     77  O        -18.6030    8.6560  -30.2510 O.2    92  PHE92      -0.2867
     78  CB       -17.0650    5.9200  -30.4050 C.3    92  PHE92       0.0534
     79  CG       -16.7490    4.6450  -29.6740 C.ar   92  PHE92      -0.0203
     80  CD1      -16.3960    3.5010  -30.3720 C.ar   92  PHE92      -0.0042
     81  CD2      -16.8020    4.5920  -28.2840 C.ar   92  PHE92      -0.0042
     82  CE1      -16.1000    2.3190  -29.7020 C.ar   92  PHE92      -0.0003
     83  CE2      -16.5110    3.4160  -27.6050 C.ar   92  PHE92      -0.0003
     84  CZ       -16.1620    2.2750  -28.3190 C.ar   92  PHE92      -0.0000
     85  N        -18.0560    7.0170  -36.4560 N.3    96  LEU96      -0.1245
     86  CA       -17.1270    6.0950  -35.8200 C.3    96  LEU96       0.1561
     87  C        -17.8540    4.9240  -35.1730 C.2    96  LEU96       0.2260
     88  O        -18.3920    5.0320  -34.0780 O.2    96  LEU96      -0.2867
     89  CB       -16.2220    6.8210  -34.8130 C.3    96  LEU96       0.0270
     90  CG       -15.0330    6.0040  -34.2960 C.3    96  LEU96       0.0019
     91  CD1      -14.0890    5.5950  -35.4280 C.3    96  LEU96       0.0001
     92  CD2      -14.2880    6.7580  -33.2110 C.3    96  LEU96       0.0001
     93  N        -17.1490    1.0150  -34.1530 N.3    98  LEU98      -0.1245
     94  CA       -16.0400    0.1030  -33.9370 C.3    98  LEU98       0.1561
     95  C        -16.4980   -1.1540  -33.2320 C.2    98  LEU98       0.2260
     96  O        -17.2680   -1.0930  -32.2690 O.2    98  LEU98      -0.2867
     97  CB       -14.9380    0.7850  -33.1120 C.3    98  LEU98       0.0270
     98  CG       -14.2450    2.0310  -33.6730 C.3    98  LEU98       0.0019
     99  CD1      -13.3010    2.6400  -32.6360 C.3    98  LEU98       0.0001
    100  CD2      -13.4950    1.7150  -34.9660 C.3    98  LEU98       0.0001
    101  N         -8.1820    1.4600  -31.4100 N.3   106  ALA106     -0.1231
    102  CA        -8.3260    2.9030  -31.2660 C.3   106  ALA106      0.1694
    103  C         -7.7660    3.3920  -29.9320 C.2   106  ALA106      0.2593
    104  O         -7.7070    4.5970  -29.6910 O.2   106  ALA106     -0.2718
    105  CB        -9.7730    3.3100  -31.4100 C.3   106  ALA106      0.0304
    106  N         -7.3940    2.4560  -29.0590 N.am  107  GLY107     -0.1942
    107  CA        -6.6910    2.7720  -27.8130 C.3   107  GLY107      0.2014
    108  C         -7.5280    2.7460  -26.5430 C.2   107  GLY107      0.2638
    109  O         -7.1980    3.4240  -25.5680 O.2   107  GLY107     -0.2714
    110  N         -8.5960    1.9510  -26.5490 N.am  108  LEU108     -0.1977
    111  CA        -9.5380    1.9040  -25.4390 C.3   108  LEU108      0.1596
    112  C         -9.3530    0.6540  -24.5910 C.2   108  LEU108      0.2287
    113  O        -10.2090    0.3210  -23.7780 O.2   108  LEU108     -0.2864
    114  CB       -10.9920    1.9930  -25.9550 C.3   108  LEU108      0.0297
    115  CG       -11.5200    3.3420  -26.4580 C.3   108  LEU108      0.0022
    116  CD1      -12.9330    3.1970  -27.0390 C.3   108  LEU108      0.0001
    117  CD2      -11.5090    4.3790  -25.3600 C.3   108  LEU108      0.0001
    118  N        -12.1820   -1.8390  -22.9310 N.3   111  LEU111     -0.1245
    119  CA       -13.4640   -1.1830  -22.6460 C.3   111  LEU111      0.1561
    120  C        -14.5990   -1.6190  -23.5740 C.2   111  LEU111      0.2260
    121  O        -15.7570   -1.5630  -23.1870 O.2   111  LEU111     -0.2867
    122  CB       -13.3380    0.3530  -22.6560 C.3   111  LEU111      0.0270
    123  CG       -12.3890    0.9980  -21.6430 C.3   111  LEU111      0.0019
    124  CD1      -12.1320    2.4720  -22.0160 C.3   111  LEU111      0.0001
    125  CD2      -12.8940    0.8470  -20.1950 C.3   111  LEU111      0.0001
    126  N        -18.4510   -2.1460  -22.4800 N.3   115  LEU115     -0.1245
    127  CA       -19.5050   -1.3690  -23.1190 C.3   115  LEU115      0.1561
    128  C        -20.5310   -2.2470  -23.8760 C.2   115  LEU115      0.2260
    129  O        -21.7070   -1.9390  -23.8820 O.2   115  LEU115     -0.2867
    130  CB       -18.8980   -0.3150  -24.0500 C.3   115  LEU115      0.0270
    131  CG       -18.0710    0.8370  -23.4440 C.3   115  LEU115      0.0019
    132  CD1      -17.0810    1.3850  -24.4680 C.3   115  LEU115      0.0001
    133  CD2      -18.9450    1.9480  -22.8790 C.3   115  LEU115      0.0001
    134  N        -14.2080    3.0860  -17.6760 N.3   192  VAL192     -0.1245
    135  CA       -13.8510    4.0470  -18.7140 C.3   192  VAL192      0.1561
    136  C        -13.0420    5.1640  -18.0810 C.2   192  VAL192      0.2260
    137  O        -11.9980    5.5580  -18.5880 O.2   192  VAL192     -0.2867
    138  CB       -15.1130    4.6440  -19.4440 C.3   192  VAL192      0.0252
    139  CG1      -14.7010    5.6870  -20.4520 C.3   192  VAL192      0.0019
    140  CG2      -15.9280    3.5480  -20.1340 C.3   192  VAL192      0.0019
    141  N         -9.5690    4.0930  -17.1250 N.3   195  HIS195     -0.1226
    142  CA        -8.7640    4.0100  -18.3540 C.3   195  HIS195      0.1752
    143  C         -8.1600    5.3700  -18.6840 C.2   195  HIS195      0.2596
    144  O         -6.9370    5.5050  -18.7760 O.2   195  HIS195     -0.2718
    145  CB        -9.5820    3.4950  -19.5600 C.3   195  HIS195      0.0759
    146  CG        -8.7670    3.3050  -20.8060 C.ar  195  HIS195      0.0818
    147  ND1       -7.9920    2.1820  -21.0270 N.ar  195  HIS195     -0.2268
    148  CD2       -8.6010    4.0960  -21.8970 C.ar  195  HIS195      0.1154
    149  CE1       -7.3810    2.2920  -22.1980 C.ar  195  HIS195      0.1986
    150  NE2       -7.7330    3.4450  -22.7450 N.ar  195  HIS195     -0.2212
    151  N         -9.0240    6.3690  -18.8460 N.am  196  PHE196     -0.1976
    152  CA        -8.5940    7.7220  -19.1860 C.3   196  PHE196      0.1639
    153  C         -7.7600    8.4260  -18.1000 C.2   196  PHE196      0.2290
    154  O         -6.9340    9.2680  -18.4310 O.2   196  PHE196     -0.2864
    155  CB        -9.7690    8.5650  -19.6990 C.3   196  PHE196      0.0560
    156  CG       -10.1400    8.2420  -21.1190 C.ar  196  PHE196     -0.0200
    157  CD1       -9.2780    8.5680  -22.1660 C.ar  196  PHE196     -0.0042
    158  CD2      -11.3100    7.5530  -21.4090 C.ar  196  PHE196     -0.0042
    159  CE1       -9.5970    8.2340  -23.4840 C.ar  196  PHE196     -0.0003
    160  CE2      -11.6420    7.2250  -22.7280 C.ar  196  PHE196     -0.0003
    161  CZ       -10.7910    7.5640  -23.7630 C.ar  196  PHE196     -0.0000
    162  N         -4.3530    6.8360  -19.0440 N.3   199  VAL199     -0.1245
    163  CA        -3.8500    7.4390  -20.2680 C.3   199  VAL199      0.1561
    164  C         -3.2950    8.8350  -19.9550 C.2   199  VAL199      0.2260
    165  O         -2.1580    9.1390  -20.3140 O.2   199  VAL199     -0.2867
    166  CB        -4.9430    7.5070  -21.3850 C.3   199  VAL199      0.0252
    167  CG1       -4.3970    8.1570  -22.6590 C.3   199  VAL199      0.0019
    168  CG2       -5.5120    6.1110  -21.6870 C.3   199  VAL199      0.0019
    169  N         -4.3570   11.9100  -21.0450 N.3   201  LEU201     -0.1245
    170  CA        -4.2190   12.3960  -22.4130 C.3   201  LEU201      0.1561
    171  C         -3.7220   13.8360  -22.4790 C.2   201  LEU201      0.2260
    172  O         -4.3800   14.7600  -21.9850 O.2   201  LEU201     -0.2867
    173  CB        -5.5710   12.2470  -23.1300 C.3   201  LEU201      0.0270
    174  CG        -5.7510   12.3600  -24.6460 C.3   201  LEU201      0.0019
    175  CD1       -4.7730   11.4600  -25.4260 C.3   201  LEU201      0.0001
    176  CD2       -7.1960   12.0100  -24.9880 C.3   201  LEU201      0.0001
@<TRIPOS>BOND
     1    85    86    1
     2    86    87    1
     3    86    89    1
     4    91    90    1
     5    87    88    2
     6   100    98    1
     7    89    90    1
     8    90    92    1
     9    93    94    1
    10    94    95    1
    11    94    97    1
    12    98    97    1
    13    98    99    1
    14    95    96    2
    15     1     2    1
    16    15    13    1
    17     8     9    1
    18    13    14    1
    19    13    12    1
    20     2     3    1
    21     2     5    1
    22   105   102    1
    23   101   102    1
    24   102   103    1
    25     3     4    2
    26    74    75    1
    27    76    75    1
    28    76    77    2
    29    23    21    1
    30     9    12    1
    31     9    10    1
    32    22    21    1
    33     7     5    1
    34     5     6    1
    35    75    78    1
    36    78    79    1
    37    80    82   ar
    38    80    79   ar
    39    20    21    1
    40    20    17    1
    41    16    17    1
    42   103   104    2
    43   103   106   am
    44    82    84   ar
    45    17    18    1
    46    79    81   ar
    47    10    11    2
    48   106   107    1
    49    84    83   ar
    50    81    83   ar
    51    18    19    2
    52    18    24   am
    53    70    69    2
    54   107   108    1
    55    24    25    1
    56    72    71    1
    57   116   115    1
    58    42    41   ar
    59    69    68    1
    60    68    71    1
    61    68    67    1
    62   110   108   am
    63   110   111    1
    64   108   109    2
    65   115   114    1
    66   115   117    1
    67    41    40    1
    68    41    43   ar
    69    40    39    1
    70    71    73    1
    71    35    36    1
    72   114   111    1
    73    25    28    1
    74    25    26    1
    75   111   112    1
    76   175   174    1
    77    28    29    1
    78    26    27    2
    79    36    39    1
    80    36    37    1
    81   176   174    1
    82   174   173    1
    83   112   113    2
    84   132   131    1
    85   130   131    1
    86   130   127    1
    87    29    30   ar
    88    29    31   ar
    89   129   128    2
    90   128   127    1
    91   161   159   ar
    92   161   160   ar
    93    37    38    2
    94   120   121    2
    95   120   119    1
    96   159   157   ar
    97    55    54    2
    98    30    32   ar
    99   131   133    1
   100    59    57    1
   101   173   170    1
   102   127   126    1
   103    63    62    2
   104    31    33   ar
   105   118   119    1
   106   150   149   ar
   107   150   148   ar
   108   160   158   ar
   109   167   166    1
   110   122   119    1
   111   122   123    1
   112   171   170    1
   113   171   172    2
   114   170   169    1
   115    54    53    1
   116    54    60   am
   117   149   147   ar
   118   157   156   ar
   119    62    61    1
   120    32    34   ar
   121   124   123    1
   122    57    58    1
   123    57    56    1
   124   148   146   ar
   125    53    56    1
   126    53    52    1
   127   168   166    1
   128    61    60    1
   129    61    64    1
   130    33    34   ar
   131   123   125    1
   132   158   156   ar
   133   166   163    1
   134   156   155    1
   135   147   146   ar
   136   146   145    1
   137    65    64    1
   138    64    66    1
   139   139   138    1
   140   165   164    2
   141   163   164    1
   142   163   162    1
   143   140   138    1
   144    50    51    1
   145    50    49    1
   146   155   152    1
   147   145   142    1
   148   138   135    1
   149   152   151    1
   150   152   153    1
   151   151   143   am
   152   144   143    2
   153   135   136    1
   154   135   134    1
   155    47    46    2
   156   143   142    1
   157   137   136    2
   158   154   153    2
   159   142   141    1
   160    49    48    1
   161    46    45    1
   162    45    48    1
   163    45    44    1
