@<TRIPOS>MOLECULE
tmp/2pjtA00.pdb
 177 176 0 0 0
SMALL
GASTEIGER

@<TRIPOS>ATOM
      1  N         17.9610   36.7540  136.4500 N.3    73  TYR73      -0.1241
      2  CA        17.4500   35.5360  137.0700 C.3    73  TYR73       0.1605
      3  C         16.8950   34.7400  135.8880 C.2    73  TYR73       0.2264
      4  O         15.6900   34.4610  135.8160 O.2    73  TYR73      -0.2867
      5  CB        16.3160   35.8390  138.0530 C.3    73  TYR73       0.0534
      6  CG        16.7310   36.5140  139.3480 C.ar   73  TYR73      -0.0201
      7  CD1       16.3310   37.8240  139.6270 C.ar   73  TYR73      -0.0009
      8  CD2       17.4490   35.8180  140.3350 C.ar   73  TYR73      -0.0009
      9  CE1       16.6180   38.4260  140.8540 C.ar   73  TYR73       0.0417
     10  CE2       17.7490   36.4110  141.5740 C.ar   73  TYR73       0.0417
     11  CZ        17.3220   37.7210  141.8260 C.ar   73  TYR73       0.1957
     12  OH        17.5610   38.3370  143.0450 O.3    73  TYR73      -0.2866
     13  N         12.5570   22.3330  134.6110 N.3    80  GLY80      -0.1210
     14  CA        13.4490   22.9810  135.5390 C.3    80  GLY80       0.1956
     15  C         12.5900   24.0920  136.0980 C.2    80  GLY80       0.2612
     16  O         11.4490   23.8540  136.5150 O.2    80  GLY80      -0.2717
     17  N         13.1230   25.3070  136.0960 N.am   81  LEU81      -0.1965
     18  CA        12.3770   26.4490  136.5920 C.3    81  LEU81       0.1728
     19  C         11.1910   26.7160  135.6600 C.2    81  LEU81       0.2616
     20  O         11.3430   26.7210  134.4340 O.2    81  LEU81      -0.2715
     21  CB        13.2890   27.6770  136.6430 C.3    81  LEU81       0.0311
     22  CG        14.6050   27.5850  137.4210 C.3    81  LEU81       0.0022
     23  CD1       15.4470   28.7990  137.0880 C.3    81  LEU81       0.0001
     24  CD2       14.3500   27.4970  138.9160 C.3    81  LEU81       0.0001
     25  N         10.0150   26.9300  136.2450 N.am   82  LEU82      -0.1963
     26  CA         8.8080   27.2040  135.4670 C.3    82  LEU82       0.1728
     27  C          8.4520   28.6970  135.4410 C.2    82  LEU82       0.2616
     28  O          8.0750   29.2430  134.4000 O.2    82  LEU82      -0.2715
     29  CB         7.6240   26.4150  136.0420 C.3    82  LEU82       0.0311
     30  CG         7.8630   24.9130  136.2650 C.3    82  LEU82       0.0022
     31  CD1        6.6100   24.3220  136.8900 C.3    82  LEU82       0.0001
     32  CD2        8.2240   24.1800  134.9490 C.3    82  LEU82       0.0001
     33  N          8.5850   29.3550  136.5880 N.am   83  ALA83      -0.1963
     34  CA         8.2360   30.7590  136.6850 C.3    83  ALA83       0.1728
     35  C          8.5560   31.2820  138.0730 C.2    83  ALA83       0.2616
     36  O          8.5790   30.5120  139.0330 O.2    83  ALA83      -0.2715
     37  CB         6.7520   30.9360  136.3960 C.3    83  ALA83       0.0334
     38  N          8.7940   32.5920  138.1730 N.am   84  HIS84      -0.1973
     39  CA         9.1050   33.2270  139.4470 C.3    84  HIS84       0.1656
     40  C          8.4600   34.6160  139.5910 C.2    84  HIS84       0.2291
     41  O          8.3310   35.3650  138.6240 O.2    84  HIS84      -0.2864
     42  CB        10.6180   33.3370  139.6240 C.3    84  HIS84       0.0771
     43  CG        11.2950   34.1690  138.5800 C.ar   84  HIS84       0.0820
     44  ND1       12.2140   33.6480  137.6960 N.ar   84  HIS84      -0.2267
     45  CD2       11.2120   35.4890  138.2980 C.ar   84  HIS84       0.1154
     46  CE1       12.6690   34.6120  136.9160 C.ar   84  HIS84       0.1986
     47  NE2       12.0770   35.7380  137.2620 N.ar   84  HIS84      -0.2212
     48  N         -2.7100   27.0680  137.4540 N.3   115  LEU115     -0.1231
     49  CA        -2.1500   26.5530  138.6930 C.3   115  LEU115      0.1693
     50  C         -0.8390   27.2440  139.0150 C.2   115  LEU115      0.2591
     51  O         -0.6800   27.7790  140.1120 O.2   115  LEU115     -0.2718
     52  CB        -1.9370   25.0390  138.6150 C.3   115  LEU115      0.0284
     53  CG        -3.1890   24.1680  138.5670 C.3   115  LEU115      0.0019
     54  CD1       -2.7780   22.7160  138.5210 C.3   115  LEU115      0.0001
     55  CD2       -4.0700   24.4470  139.7800 C.3   115  LEU115      0.0001
     56  N          0.1000   27.2380  138.0690 N.am  116  VAL116     -0.1980
     57  CA         1.3790   27.9000  138.3010 C.3   116  VAL116      0.1595
     58  C          1.1180   29.3730  138.6570 C.2   116  VAL116      0.2287
     59  O          1.5710   29.8770  139.6880 O.2   116  VAL116     -0.2864
     60  CB         2.2850   27.8380  137.0560 C.3   116  VAL116      0.0276
     61  CG1        3.5580   28.6070  137.3080 C.3   116  VAL116      0.0022
     62  CG2        2.6070   26.3950  136.7140 C.3   116  VAL116      0.0022
     63  N          0.0020   29.9890  142.0840 N.3   119  HIS119     -0.1226
     64  CA         1.1250   29.8590  142.9970 C.3   119  HIS119      0.1752
     65  C          1.8750   31.1950  142.9590 C.2   119  HIS119      0.2595
     66  O          1.9600   31.9050  143.9560 O.2   119  HIS119     -0.2718
     67  CB         2.0290   28.7280  142.4960 C.3   119  HIS119      0.0759
     68  CG         3.2670   28.5160  143.3120 C.ar  119  HIS119      0.0818
     69  ND1        3.2980   27.7050  144.4270 N.ar  119  HIS119     -0.2268
     70  CD2        4.5280   28.9810  143.1520 C.ar  119  HIS119      0.1154
     71  CE1        4.5250   27.6750  144.9150 C.ar  119  HIS119      0.1986
     72  NE2        5.2900   28.4400  144.1590 N.ar  119  HIS119     -0.2212
     73  N          2.3860   31.5370  141.7800 N.am  120  GLU120     -0.1979
     74  CA         3.1540   32.7630  141.5850 C.3   120  GLU120      0.1602
     75  C          2.5390   34.0370  142.1400 C.2   120  GLU120      0.2287
     76  O          3.2540   34.8940  142.6560 O.2   120  GLU120     -0.2864
     77  CB         3.4740   32.9600  140.1030 C.3   120  GLU120      0.0415
     78  CG         4.3540   31.8650  139.5030 C.3   120  GLU120      0.1163
     79  CD         5.6710   31.6790  140.2450 C.2   120  GLU120      0.3649
     80  OE1        6.3480   32.6820  140.5410 O.co2 120  GLU120     -0.2457
     81  OE2        6.0410   30.5220  140.5170 O.co2 120  GLU120     -0.2457
     82  N          3.1550   34.4670  145.7610 N.3   123  HIS123     -0.1241
     83  CA         4.4000   35.1480  146.0220 C.3   123  HIS123      0.1621
     84  C          4.1300   36.6440  145.8860 C.2   123  HIS123      0.2264
     85  O          4.3910   37.4230  146.8080 O.2   123  HIS123     -0.2867
     86  CB         5.4570   34.7080  145.0140 C.3   123  HIS123      0.0745
     87  CG         5.9500   33.3130  145.2360 C.ar  123  HIS123      0.0817
     88  ND1        6.3940   32.8700  146.4640 N.ar  123  HIS123     -0.2268
     89  CD2        6.0750   32.2640  144.3900 C.ar  123  HIS123      0.1154
     90  CE1        6.7710   31.6080  146.3650 C.ar  123  HIS123      0.1986
     91  NE2        6.5880   31.2160  145.1170 N.ar  123  HIS123     -0.2212
     92  N          7.3410   29.6920  150.4040 N.3   129  HIS129     -0.1241
     93  CA         6.9230   28.3120  150.2290 C.3   129  HIS129      0.1621
     94  C          6.4190   27.6610  151.5090 C.2   129  HIS129      0.2264
     95  O          6.9940   27.8270  152.5930 O.2   129  HIS129     -0.2867
     96  CB         8.0540   27.4740  149.6280 C.3   129  HIS129      0.0745
     97  CG         8.2790   27.7290  148.1720 C.ar  129  HIS129      0.0817
     98  ND1        9.4570   27.4050  147.5340 N.ar  129  HIS129     -0.2268
     99  CD2        7.4820   28.2900  147.2330 C.ar  129  HIS129      0.1154
    100  CE1        9.3780   27.7600  146.2640 C.ar  129  HIS129      0.1986
    101  NE2        8.1910   28.2990  146.0570 N.ar  129  HIS129     -0.2212
    102  N         -0.3580   22.3010  150.1470 N.3   135  ALA135     -0.1231
    103  CA        -0.5140   23.7340  149.9100 C.3   135  ALA135      0.1694
    104  C         -0.1650   24.1870  148.4870 C.2   135  ALA135      0.2591
    105  O          0.7870   23.6880  147.8760 O.2   135  ALA135     -0.2718
    106  CB         0.3210   24.5120  150.9200 C.3   135  ALA135      0.0304
    107  N         -0.9360   25.1470  147.9770 N.am  136  LEU136     -0.1980
    108  CA        -0.7210   25.6870  146.6410 C.3   136  LEU136      0.1596
    109  C          0.6550   26.3100  146.5800 C.2   136  LEU136      0.2287
    110  O          1.2380   26.4390  145.5060 O.2   136  LEU136     -0.2864
    111  CB        -1.7690   26.7550  146.3090 C.3   136  LEU136      0.0297
    112  CG        -1.5480   27.5680  145.0230 C.3   136  LEU136      0.0022
    113  CD1       -1.6120   26.6430  143.8160 C.3   136  LEU136      0.0001
    114  CD2       -2.5940   28.6660  144.8970 C.3   136  LEU136      0.0001
    115  N          3.4050   25.0910  147.8670 N.3   138  PHE138     -0.1228
    116  CA         4.3830   24.0430  148.0890 C.3   138  PHE138      0.1721
    117  C          5.2460   24.1870  146.8240 C.2   138  PHE138      0.2437
    118  O          4.7180   24.4280  145.7380 O.2   138  PHE138     -0.2733
    119  CB         3.6600   22.6890  148.1460 C.3   138  PHE138      0.0547
    120  CG         4.5320   21.5370  148.5740 C.ar  138  PHE138     -0.0202
    121  CD1        5.0910   20.6780  147.6300 C.ar  138  PHE138     -0.0042
    122  CD2        4.7770   21.2980  149.9270 C.ar  138  PHE138     -0.0042
    123  CE1        5.8770   19.5970  148.0250 C.ar  138  PHE138     -0.0003
    124  CE2        5.5670   20.2170  150.3310 C.ar  138  PHE138     -0.0003
    125  CZ         6.1130   19.3670  149.3750 C.ar  138  PHE138     -0.0000
    126  N          6.5800   24.0640  146.9500 N.am  139  PRO139     -0.2718
    127  CA         7.5430   24.1890  145.8420 C.3   139  PRO139      0.1535
    128  C          7.5280   23.1710  144.7030 C.2   139  PRO139      0.2598
    129  O          8.3150   23.2840  143.7600 O.2   139  PRO139     -0.2715
    130  CB         8.8880   24.2070  146.5640 C.3   139  PRO139      0.0310
    131  CG         8.6390   23.3110  147.7220 C.3   139  PRO139      0.0237
    132  CD         7.2860   23.7860  148.2130 C.3   139  PRO139      0.0939
    133  N          6.6560   22.1760  144.7860 N.am  140  ILE140     -0.1964
    134  CA         6.5850   21.1750  143.7370 C.3   140  ILE140      0.1727
    135  C          5.2580   21.2610  143.0090 C.2   140  ILE140      0.2616
    136  O          4.1980   21.2810  143.6330 O.2   140  ILE140     -0.2715
    137  CB         6.7310   19.7490  144.2910 C.3   140  ILE140      0.0290
    138  CG1        8.1010   19.5770  144.9460 C.3   140  ILE140      0.0022
    139  CG2        6.5610   18.7420  143.1720 C.3   140  ILE140      0.0023
    140  CD1        9.2650   19.7790  143.9990 C.3   140  ILE140      0.0001
    141  N          5.3230   21.3070  141.6850 N.am  141  TYR141     -0.1960
    142  CA         4.1200   21.3710  140.8770 C.3   141  TYR141      0.1771
    143  C          3.3860   20.0360  140.9200 C.2   141  TYR141      0.2620
    144  O          3.9940   18.9640  140.9300 O.2   141  TYR141     -0.2715
    145  CB         4.4680   21.7400  139.4350 C.3   141  TYR141      0.0574
    146  CG         3.3160   21.5860  138.4610 C.ar  141  TYR141     -0.0198
    147  CD1        3.1050   20.3820  137.7780 C.ar  141  TYR141     -0.0009
    148  CD2        2.4410   22.6460  138.2120 C.ar  141  TYR141     -0.0009
    149  CE1        2.0600   20.2420  136.8730 C.ar  141  TYR141      0.0417
    150  CE2        1.3940   22.5140  137.3080 C.ar  141  TYR141      0.0417
    151  CZ         1.2130   21.3130  136.6440 C.ar  141  TYR141      0.1957
    152  OH         0.1860   21.1980  135.7400 O.3   141  TYR141     -0.2866
    153  N          2.0650   20.1240  140.9490 N.am  142  THR142     -0.1951
    154  CA         1.2120   18.9520  140.9920 C.3   142  THR142      0.1897
    155  C         -0.1610   19.3350  140.4240 C.2   142  THR142      0.2313
    156  O         -0.8430   20.2180  140.9470 O.2   142  THR142     -0.2863
    157  CB         1.0980   18.4270  142.4550 C.3   142  THR142      0.1794
    158  OG1       -0.0500   17.5760  142.5730 O.3   142  THR142     -0.2208
    159  CG2        1.0070   19.5960  143.4580 C.3   142  THR142      0.0378
    160  N         -4.1040   19.2700  139.5120 N.3   144  THR144     -0.1218
    161  CA        -5.3270   18.9070  140.2330 C.3   144  THR144      0.1862
    162  C         -6.5570   19.0340  139.3330 C.2   144  THR144      0.2287
    163  O         -6.6970   20.0020  138.5780 O.2   144  THR144     -0.2866
    164  CB        -5.5550   19.7920  141.4850 C.3   144  THR144      0.1770
    165  OG1       -5.4990   21.1780  141.1140 O.3   144  THR144     -0.2211
    166  CG2       -4.5080   19.4980  142.5430 C.3   144  THR144      0.0375
    167  N        -11.9720   24.6270  141.5250 N.3   146  PHE146     -0.1241
    168  CA       -10.7430   24.6280  142.3220 C.3   146  PHE146      0.1605
    169  C        -10.8720   25.2570  143.7040 C.2   146  PHE146      0.2264
    170  O        -11.1210   26.4600  143.8290 O.2   146  PHE146     -0.2867
    171  CB        -9.5980   25.3320  141.5770 C.3   146  PHE146      0.0534
    172  CG        -8.3060   25.3690  142.3600 C.ar  146  PHE146     -0.0203
    173  CD1       -7.4700   24.2600  142.4030 C.ar  146  PHE146     -0.0042
    174  CD2       -7.9730   26.4830  143.1320 C.ar  146  PHE146     -0.0042
    175  CE1       -6.3310   24.2630  143.2020 C.ar  146  PHE146     -0.0003
    176  CE2       -6.8340   26.4880  143.9330 C.ar  146  PHE146     -0.0003
    177  CZ        -6.0150   25.3800  143.9710 C.ar  146  PHE146     -0.0000
@<TRIPOS>BOND
     1    28    27    2
     2    20    19    2
     3    13    14    1
     4    32    30    1
     5    27    26    1
     6    27    33   am
     7    26    29    1
     8    26    25    1
     9    14    15    1
    10    19    25   am
    11    19    18    1
    12   152   151    1
    13     4     3    2
    14     3     2    1
    15    29    30    1
    16    17    15   am
    17    17    18    1
    18    15    16    2
    19    30    31    1
    20    37    34    1
    21     1     2    1
    22    33    34    1
    23    18    21    1
    24    21    22    1
    25   151   149   ar
    26   151   150   ar
    27    34    35    1
    28    62    60    1
    29   149   147   ar
    30    46    47   ar
    31    46    44   ar
    32    60    61    1
    33    60    57    1
    34     2     5    1
    35    23    22    1
    36    47    45   ar
    37   150   148   ar
    38    22    24    1
    39    48    49    1
    40    44    43   ar
    41   147   146   ar
    42     5     6    1
    43    56    57    1
    44    56    50   am
    45    35    38   am
    46    35    36    2
    47    38    39    1
    48   148   146   ar
    49    45    43   ar
    50    57    58    1
    51   146   145    1
    52    54    53    1
    53    53    52    1
    54    53    55    1
    55   163   162    2
    56    43    42    1
    57    52    49    1
    58    41    40    2
    59    58    59    2
    60    49    50    1
    61    50    51    2
    62   162   161    1
    63     6     7   ar
    64     6     8   ar
    65   145   142    1
    66    39    40    1
    67    39    42    1
    68    78    77    1
    69    78    79    1
    70   160   161    1
    71     7     9   ar
    72    77    74    1
    73   161   164    1
    74    79    81   ar
    75    79    80   ar
    76     8    10   ar
    77   155   156    2
    78   155   154    1
    79     9    11   ar
    80   142   143    1
    81   142   141    1
    82   143   144    2
    83   143   153   am
    84   153   154    1
    85   154   157    1
    86   165   164    1
    87   164   166    1
    88   167   168    1
    89    10    11   ar
    90   171   168    1
    91   171   172    1
    92    74    73    1
    93    74    75    1
    94   141   135   am
    95    73    65   am
    96    11    12    1
    97    63    64    1
    98    75    76    2
    99   168   169    1
   100   172   173   ar
   101   172   174   ar
   102   173   175   ar
   103   157   158    1
   104   157   159    1
   105    67    64    1
   106    67    68    1
   107    65    64    1
   108    65    66    2
   109   135   136    2
   110   135   134    1
   111   174   176   ar
   112    70    68   ar
   113    70    72   ar
   114   139   137    1
   115   175   177   ar
   116    68    69   ar
   117   169   170    2
   118   134   137    1
   119   134   133    1
   120   129   128    2
   121   113   112    1
   122   176   177   ar
   123   140   138    1
   124    72    71   ar
   125   137   138    1
   126    89    91   ar
   127    89    87   ar
   128    69    71   ar
   129   128   133   am
   130   128   127    1
   131   114   112    1
   132    86    87    1
   133    86    83    1
   134   112   111    1
   135    91    90   ar
   136    87    88   ar
   137   110   109    2
   138   118   117    2
   139    82    83    1
   140   127   130    1
   141   127   126    1
   142    84    83    1
   143    84    85    2
   144   101   100   ar
   145   101    99   ar
   146   100    98   ar
   147   111   108    1
   148    90    88   ar
   149   130   131    1
   150   109   108    1
   151   108   107    1
   152   117   126   am
   153   117   116    1
   154   126   132    1
   155    99    97   ar
   156    98    97   ar
   157   121   123   ar
   158   121   120   ar
   159   131   132    1
   160   115   116    1
   161   105   104    2
   162   107   104   am
   163   123   125   ar
   164   116   119    1
   165   119   120    1
   166    97    96    1
   167   104   103    1
   168   120   122   ar
   169   125   124   ar
   170    96    93    1
   171   103   102    1
   172   103   106    1
   173   122   124   ar
   174    93    92    1
   175    93    94    1
   176    94    95    2
