@<TRIPOS>MOLECULE
tmp/2pk5B00.pdb
 136 128 0 0 0
SMALL
GASTEIGER

@<TRIPOS>ATOM
      1  N          9.0560   -8.8200  -24.3240 N.3     8  ARG8       -0.1245
      2  CA         9.7620  -10.0840  -24.5500 C.3     8  ARG8        0.1563
      3  C         10.6770  -10.0110  -25.7800 C.2     8  ARG8        0.2260
      4  O         10.2430   -9.5560  -26.8460 O.2     8  ARG8       -0.2867
      5  CB         8.7760  -11.2450  -24.7060 C.3     8  ARG8        0.0307
      6  CG         8.0020  -11.5370  -23.4420 C.3     8  ARG8        0.0489
      7  CD         6.9000  -12.5430  -23.6610 C.3     8  ARG8        0.2205
      8  NE         6.2170  -12.7950  -22.3880 N.pl3   8  ARG8       -0.0865
      9  CZ         4.9470  -13.1790  -22.2680 C.cat   8  ARG8        0.5346
     10  NH1        4.1970  -13.3620  -23.3540 N.pl3   8  ARG8        0.1354
     11  NH2        4.4190  -13.3830  -21.0590 N.pl3   8  ARG8        0.1354
     12  N         12.2770  -16.9730  -28.2590 N.3    23  LEU23      -0.1245
     13  CA        12.5850  -16.0230  -27.2180 C.3    23  LEU23       0.1561
     14  C         14.0830  -16.1430  -26.9560 C.2    23  LEU23       0.2260
     15  O         14.5870  -17.2430  -26.6910 O.2    23  LEU23      -0.2867
     16  CB        11.8080  -16.4280  -25.9450 C.3    23  LEU23       0.0270
     17  CG        11.9020  -15.5800  -24.6660 C.3    23  LEU23       0.0019
     18  CD1       11.2890  -14.2590  -24.9160 C.3    23  LEU23       0.0001
     19  CD2       11.1600  -16.2950  -23.5440 C.3    23  LEU23       0.0001
     20  N         16.8630  -16.1270  -24.6040 N.3    25  ASP25      -0.1239
     21  CA        16.6910  -16.4650  -23.1930 C.3    25  ASP25       0.1674
     22  C         18.0140  -16.7140  -22.4890 C.2    25  ASP25       0.2266
     23  O         18.5460  -17.8250  -22.5250 O.2    25  ASP25      -0.2867
     24  CB        15.7760  -17.7060  -23.0500 C.3    25  ASP25       0.1410
     25  CG        15.3970  -17.9790  -21.5960 C.2    25  ASP25       0.3668
     26  OD1       16.0160  -17.3700  -20.6940 O.co2  25  ASP25      -0.2456
     27  OD2       14.5150  -18.8250  -21.3660 O.co2  25  ASP25      -0.2456
     28  N         18.5980  -16.9490  -19.4650 N.3    27  GLY27      -0.1210
     29  CA        18.4390  -17.8470  -18.3240 C.3    27  GLY27       0.1956
     30  C         18.3930  -19.3380  -18.6680 C.2    27  GLY27       0.2612
     31  O         18.3160  -20.1960  -17.7810 O.2    27  GLY27      -0.2717
     32  N         18.4090  -19.6560  -19.9570 N.am   28  ALA28      -0.1965
     33  CA        18.3500  -21.0330  -20.4140 C.3    28  ALA28       0.1728
     34  C         19.7260  -21.5020  -20.8480 C.2    28  ALA28       0.2616
     35  O         20.3610  -20.8710  -21.7190 O.2    28  ALA28      -0.2715
     36  CB        17.3420  -21.1690  -21.5860 C.3    28  ALA28       0.0334
     37  N         20.2180  -22.5940  -20.2550 N.am   29  ASP29      -0.1957
     38  CA        21.4960  -23.1540  -20.7560 C.3    29  ASP29       0.1840
     39  C         21.3950  -23.6250  -22.2100 C.2    29  ASP29       0.2622
     40  O         22.3670  -23.5180  -22.9800 O.2    29  ASP29      -0.2715
     41  CB        21.9870  -24.3390  -19.9360 C.3    29  ASP29       0.1450
     42  CG        22.1070  -24.0410  -18.4570 C.2    29  ASP29       0.3671
     43  OD1       22.3300  -22.8790  -18.0380 O.co2  29  ASP29      -0.2456
     44  OD2       21.9850  -25.0140  -17.6880 O.co2  29  ASP29      -0.2456
     45  N         20.2330  -24.1850  -22.5610 N.am   30  ASP30      -0.1971
     46  CA        20.0590  -24.8690  -23.8320 C.3    30  ASP30       0.1709
     47  C         18.9220  -24.2350  -24.6320 C.2    30  ASP30       0.2293
     48  O         18.1630  -23.4040  -24.1200 O.2    30  ASP30      -0.2864
     49  CB        19.7380  -26.3610  -23.5860 C.3    30  ASP30       0.1436
     50  CG        20.6970  -27.0140  -22.5930 C.2    30  ASP30       0.3671
     51  OD1       21.9180  -27.0150  -22.8550 O.co2  30  ASP30      -0.2456
     52  OD2       20.2230  -27.5230  -21.5610 O.co2  30  ASP30      -0.2456
     53  N         15.4270  -24.9130  -26.6740 N.3    32  VAL32      -0.1245
     54  CA        14.3340  -25.8750  -26.6440 C.3    32  VAL32       0.1561
     55  C         13.1970  -25.3690  -27.5230 C.2    32  VAL32       0.2260
     56  O         12.7750  -24.2130  -27.3950 O.2    32  VAL32      -0.2867
     57  CB        13.7410  -26.0310  -25.1940 C.3    32  VAL32       0.0252
     58  CG1       12.8650  -27.3050  -25.1190 C.3    32  VAL32       0.0019
     59  CG2       14.8400  -26.0610  -24.1260 C.3    32  VAL32       0.0019
     60  N         17.1640  -36.3360  -22.8500 N.3    45  LYS45      -0.1245
     61  CA        17.6080  -35.2720  -21.9920 C.3    45  LYS45       0.1561
     62  C         16.4560  -34.8460  -21.0930 C.2    45  LYS45       0.2260
     63  O         15.2930  -34.7880  -21.5130 O.2    45  LYS45      -0.2867
     64  CB        18.1220  -34.0990  -22.8310 C.3    45  LYS45       0.0271
     65  CG        18.6250  -32.8690  -22.0410 C.3    45  LYS45       0.0035
     66  CD        20.0400  -33.0560  -21.5570 C.3    45  LYS45       0.0206
     67  CE        20.5620  -31.8780  -20.7150 C.3    45  LYS45       0.1093
     68  NZ        21.2340  -30.8530  -21.4970 N.3    45  LYS45      -0.1314
     69  N         15.3670  -31.6310  -18.7230 N.3    47  ILE47      -0.1231
     70  CA        15.6710  -30.2350  -18.4850 C.3    47  ILE47       0.1692
     71  C         14.7260  -29.6710  -17.4340 C.2    47  ILE47       0.2593
     72  O         13.5430  -30.0360  -17.3970 O.2    47  ILE47      -0.2718
     73  CB        15.6010  -29.3820  -19.7740 C.3    47  ILE47       0.0266
     74  CG1       14.2190  -29.4960  -20.4660 C.3    47  ILE47       0.0019
     75  CG2       16.7450  -29.7780  -20.7040 C.3    47  ILE47       0.0020
     76  CD1       14.0120  -28.5300  -21.6560 C.3    47  ILE47       0.0001
     77  N         15.2610  -28.8060  -16.5850 N.am   48  GLY48      -0.1942
     78  CA        14.5150  -28.3320  -15.4400 C.3    48  GLY48       0.2014
     79  C         14.3510  -26.8540  -15.5410 C.2    48  GLY48       0.2639
     80  O         15.2450  -26.1600  -16.0260 O.2    48  GLY48      -0.2714
     81  N         13.1230  -26.4100  -15.2760 N.am   49  GLY49      -0.1939
     82  CA        12.7350  -25.0120  -15.4050 C.3    49  GLY49       0.2014
     83  C         12.0390  -24.5730  -14.1330 C.2    49  GLY49       0.2638
     84  O         12.1940  -25.1920  -13.0680 O.2    49  GLY49      -0.2714
     85  N         11.2630  -23.5050  -14.2520 N.am   50  ILE50      -0.1977
     86  CA        10.6100  -22.9050  -13.0970 C.3    50  ILE50       0.1596
     87  C          9.5530  -23.8140  -12.4650 C.2    50  ILE50       0.2287
     88  O          9.3530  -23.7750  -11.2620 O.2    50  ILE50      -0.2864
     89  CB        10.0650  -21.4850  -13.4270 C.3    50  ILE50       0.0276
     90  CG1        9.8730  -20.6490  -12.1450 C.3    50  ILE50       0.0022
     91  CG2        8.8020  -21.5480  -14.2700 C.3    50  ILE50       0.0022
     92  CD1       11.1830  -20.2560  -11.4830 C.3    50  ILE50       0.0001
     93  N          9.4980  -27.3190  -12.6830 N.3    52  GLY52      -0.1210
     94  CA        10.0380  -28.6750  -12.5430 C.3    52  GLY52       0.1956
     95  C         10.7190  -29.1120  -13.8260 C.2    52  GLY52       0.2611
     96  O         11.2480  -28.2740  -14.5440 O.2    52  GLY52      -0.2717
     97  N         10.6690  -30.4210  -14.1270 N.am   53  PHE53      -0.1976
     98  CA        11.4670  -31.0360  -15.2040 C.3    53  PHE53       0.1639
     99  C         10.5810  -31.6280  -16.2980 C.2    53  PHE53       0.2290
    100  O          9.4890  -32.1400  -16.0350 O.2    53  PHE53      -0.2864
    101  CB        12.3620  -32.1650  -14.6390 C.3    53  PHE53       0.0560
    102  CG        13.5420  -31.6590  -13.8400 C.ar   53  PHE53      -0.0200
    103  CD1       13.3840  -31.2560  -12.5110 C.ar   53  PHE53      -0.0042
    104  CD2       14.7930  -31.5430  -14.4340 C.ar   53  PHE53      -0.0042
    105  CE1       14.4740  -30.7490  -11.7760 C.ar   53  PHE53      -0.0003
    106  CE2       15.8870  -31.0420  -13.7110 C.ar   53  PHE53      -0.0003
    107  CZ        15.7220  -30.6540  -12.3850 C.ar   53  PHE53      -0.0000
    108  N          7.8720  -27.5750  -24.4190 N.3    80  THR80      -0.1204
    109  CA         8.1440  -26.2490  -23.8820 C.3    80  THR80       0.1979
    110  C          6.9660  -25.3230  -24.2010 C.2    80  THR80       0.2460
    111  O          6.3600  -25.4580  -25.2570 O.2    80  THR80      -0.2732
    112  CB         9.4400  -25.6770  -24.4930 C.3    80  THR80       0.1783
    113  OG1        9.6900  -24.3720  -23.9680 O.3    80  THR80      -0.2211
    114  CG2        9.3870  -25.6380  -26.0220 C.3    80  THR80       0.0376
    115  N          6.6140  -24.4100  -23.2730 N.am   81  PRO81      -0.2717
    116  CA         5.5230  -23.4580  -23.5600 C.3    81  PRO81       0.1535
    117  C          5.8420  -22.4210  -24.6460 C.2    81  PRO81       0.2598
    118  O          4.9280  -21.8830  -25.2660 O.2    81  PRO81      -0.2715
    119  CB         5.2930  -22.7500  -22.2190 C.3    81  PRO81       0.0310
    120  CG         6.4670  -22.9560  -21.4370 C.3    81  PRO81       0.0237
    121  CD         7.1560  -24.2390  -21.9120 C.3    81  PRO81       0.0939
    122  N          7.1320  -22.1800  -24.8700 N.am   82  VAL82      -0.1978
    123  CA         7.6520  -21.1150  -25.7400 C.3    82  VAL82       0.1596
    124  C          8.9160  -21.6650  -26.4030 C.2    82  VAL82       0.2287
    125  O          9.7150  -22.3180  -25.7300 O.2    82  VAL82      -0.2864
    126  CB         8.0260  -19.8570  -24.8600 C.3    82  VAL82       0.0276
    127  CG1        8.8190  -18.8280  -25.6090 C.3    82  VAL82       0.0022
    128  CG2        6.7780  -19.1990  -24.2480 C.3    82  VAL82       0.0022
    129  N         12.5730  -21.4010  -27.0970 N.3    84  ILE84      -0.1245
    130  CA        13.6140  -20.5830  -26.4390 C.3    84  ILE84       0.1561
    131  C         14.9920  -20.8170  -27.0260 C.2    84  ILE84       0.2260
    132  O         15.3890  -21.9640  -27.2460 O.2    84  ILE84      -0.2867
    133  CB        13.6400  -20.7610  -24.8950 C.3    84  ILE84       0.0252
    134  CG1       13.9600  -22.2070  -24.5050 C.3    84  ILE84       0.0019
    135  CG2       12.3200  -20.1650  -24.3020 C.3    84  ILE84       0.0019
    136  CD1       14.2100  -22.4520  -22.9660 C.3    84  ILE84       0.0001
@<TRIPOS>BOND
     1    12    13    1
     2    55    56    2
     3    55    54    1
     4   132   131    2
     5    13    14    1
     6    13    16    1
     7   129   130    1
     8   131   130    1
     9    14    15    2
    10     4     3    2
    11    53    54    1
    12    54    57    1
    13   130   133    1
    14   124   123    1
    15   124   125    2
    16   114   112    1
    17    16    17    1
    18     3     2    1
    19   123   122    1
    20   123   126    1
    21   127   126    1
    22   118   117    2
    23   111   110    2
    24    57    58    1
    25    57    59    1
    26    18    17    1
    27   133   134    1
    28   133   135    1
    29   122   117   am
    30   126   128    1
    31     5     2    1
    32     5     6    1
    33    17    19    1
    34   117   116    1
    35    47    48    2
    36    47    46    1
    37    20    21    1
    38     2     1    1
    39   134   136    1
    40   112   113    1
    41   112   109    1
    42   108   109    1
    43   110   109    1
    44   110   115   am
    45    46    49    1
    46    46    45    1
    47     7     6    1
    48     7     8    1
    49    49    50    1
    50   116   115    1
    51   116   119    1
    52    10     9    1
    53   115   121    1
    54    21    24    1
    55    21    22    1
    56    24    25    1
    57    40    39    2
    58    51    50   ar
    59    60    61    1
    60    64    65    1
    61    64    61    1
    62    50    52   ar
    63    45    39   am
    64    23    22    2
    65     8     9    2
    66     9    11    1
    67   119   120    1
    68    39    38    1
    69    65    66    1
    70    61    62    1
    71   121   120    1
    72    35    34    2
    73    76    74    1
    74    25    27   ar
    75    25    26   ar
    76    36    33    1
    77    66    67    1
    78    63    62    2
    79    68    67    1
    80    34    33    1
    81    34    37   am
    82    38    37    1
    83    38    41    1
    84    75    73    1
    85    74    73    1
    86    33    32    1
    87    32    30   am
    88    41    42    1
    89    73    70    1
    90    28    29    1
    91    69    70    1
    92    30    29    1
    93    30    31    2
    94    70    71    1
    95    42    43   ar
    96    42    44   ar
    97    71    72    2
    98    71    77   am
    99    77    78    1
   100    99   100    2
   101    99    98    1
   102    80    79    2
   103    79    78    1
   104    79    81   am
   105    82    81    1
   106    82    83    1
   107    98   101    1
   108    98    97    1
   109   101   102    1
   110    96    95    2
   111   104   102   ar
   112   104   106   ar
   113    91    89    1
   114    85    83   am
   115    85    86    1
   116    83    84    2
   117    97    95   am
   118   102   103   ar
   119    95    94    1
   120   106   107   ar
   121    89    86    1
   122    89    90    1
   123    86    87    1
   124    93    94    1
   125   103   105   ar
   126    87    88    2
   127   107   105   ar
   128    90    92    1
