@<TRIPOS>MOLECULE
tmp/2pk9D00.pdb
 88 83 0 0 0
SMALL
GASTEIGER

@<TRIPOS>ATOM
      1  N         65.5240  -37.4470   21.2190 N.3    47  SER47      -0.1217
      2  CA        65.1520  -36.1260   20.7330 C.3    47  SER47       0.1889
      3  C         65.0790  -35.1940   21.9200 C.2    47  SER47       0.2288
      4  O         64.9290  -35.6540   23.0580 O.2    47  SER47      -0.2866
      5  CB        63.7960  -36.1770   20.0410 C.3    47  SER47       0.2089
      6  OG        63.8870  -36.8470   18.8000 O.3    47  SER47      -0.2183
      7  N         58.7690  -35.6840   18.6620 N.3    51  PRO51      -0.2116
      8  CA        58.3980  -35.1910   17.3360 C.3    51  PRO51       0.1372
      9  C         56.9000  -35.0320   17.2160 C.2    51  PRO51       0.2244
     10  O         56.1490  -35.8480   17.7500 O.2    51  PRO51      -0.2868
     11  CB        58.8610  -36.3060   16.4050 C.3    51  PRO51       0.0268
     12  CG        59.9590  -36.9420   17.1140 C.3    51  PRO51       0.0207
     13  CD        59.6240  -36.8800   18.5720 C.3    51  PRO51       0.0892
     14  N         55.4220  -35.0870   14.2090 N.3    53  ILE53      -0.1245
     15  CA        55.0600  -36.0560   13.1920 C.3    53  ILE53       0.1561
     16  C         54.7670  -37.4350   13.7890 C.2    53  ILE53       0.2260
     17  O         55.5970  -38.0430   14.4780 O.2    53  ILE53      -0.2867
     18  CB        56.0830  -36.1480   12.0320 C.3    53  ILE53       0.0252
     19  CG1       55.6070  -37.1900   11.0000 C.3    53  ILE53       0.0019
     20  CG2       57.5100  -36.4440   12.5560 C.3    53  ILE53       0.0019
     21  CD1       56.2660  -37.1070    9.6420 C.3    53  ILE53       0.0001
     22  N         55.7040  -40.9710    9.7900 N.3    58  TYR58      -0.1241
     23  CA        57.1410  -40.9240    9.6080 C.3    58  TYR58       0.1605
     24  C         57.6410  -42.2460    9.0170 C.2    58  TYR58       0.2264
     25  O         58.6720  -42.2730    8.3300 O.2    58  TYR58      -0.2867
     26  CB        57.8440  -40.6170   10.9280 C.3    58  TYR58       0.0534
     27  CG        59.3260  -40.4630   10.7740 C.ar   58  TYR58      -0.0201
     28  CD1       59.8640  -39.3200   10.1940 C.ar   58  TYR58      -0.0009
     29  CD2       60.1920  -41.4670   11.1880 C.ar   58  TYR58      -0.0009
     30  CE1       61.2250  -39.1770   10.0330 C.ar   58  TYR58       0.0417
     31  CE2       61.5560  -41.3320   11.0360 C.ar   58  TYR58       0.0417
     32  CZ        62.0680  -40.1820   10.4590 C.ar   58  TYR58       0.1957
     33  OH        63.4290  -40.0390   10.3120 O.3    58  TYR58      -0.2866
     34  N         56.5360  -42.7870    5.0990 N.3    61  ARG61      -0.1245
     35  CA        57.4700  -41.9360    4.3870 C.3    61  ARG61       0.1563
     36  C         58.7760  -42.6740    4.1040 C.2    61  ARG61       0.2260
     37  O         59.1550  -42.8110    2.9450 O.2    61  ARG61      -0.2867
     38  CB        57.7200  -40.6740    5.1940 C.3    61  ARG61       0.0307
     39  CG        58.5430  -39.6280    4.5030 C.3    61  ARG61       0.0489
     40  CD        58.3100  -38.3140    5.2000 C.3    61  ARG61       0.2205
     41  NE        59.5530  -37.7550    5.7040 N.pl3  61  ARG61      -0.0865
     42  CZ        59.6260  -36.8370    6.6560 C.cat  61  ARG61       0.5346
     43  NH1       58.5230  -36.3670    7.2240 N.pl3  61  ARG61       0.1354
     44  NH2       60.8110  -36.3920    7.0410 N.pl3  61  ARG61       0.1354
     45  N         61.5070  -42.3140   16.7460 N.3    98  HIS98      -0.1226
     46  CA        61.8640  -41.7940   15.4170 C.3    98  HIS98       0.1752
     47  C         63.3190  -42.0510   15.0060 C.2    98  HIS98       0.2595
     48  O         63.5590  -42.8170   14.0770 O.2    98  HIS98      -0.2718
     49  CB        61.5240  -40.3080   15.3040 C.3    98  HIS98       0.0759
     50  CG        60.0590  -40.0180   15.3800 C.ar   98  HIS98       0.0818
     51  ND1       59.3070  -40.2690   16.5080 N.ar   98  HIS98      -0.2268
     52  CD2       59.2060  -39.4840   14.4730 C.ar   98  HIS98       0.1154
     53  CE1       58.0530  -39.9130   16.2900 C.ar   98  HIS98       0.1986
     54  NE2       57.9660  -39.4280   15.0650 N.ar   98  HIS98      -0.2212
     55  N         64.2840  -41.4310   15.6900 N.am   99  ARG99      -0.1980
     56  CA        65.7050  -41.6040   15.3310 C.3    99  ARG99       0.1597
     57  C         66.1540  -43.0750   15.3260 C.2    99  ARG99       0.2287
     58  O         66.9900  -43.4720   14.5020 O.2    99  ARG99      -0.2864
     59  CB        66.6160  -40.7830   16.2300 C.3    99  ARG99       0.0334
     60  CG        66.1820  -39.3560   16.3770 C.3    99  ARG99       0.0492
     61  CD        67.1390  -38.6130   17.2910 C.3    99  ARG99       0.2205
     62  NE        68.2990  -38.0730   16.5780 N.pl3  99  ARG99      -0.0865
     63  CZ        68.3150  -36.8740   16.0080 C.cat  99  ARG99       0.5346
     64  NH1       67.2310  -36.1000   16.0610 N.pl3  99  ARG99       0.1354
     65  NH2       69.4090  -36.4430   15.3830 N.pl3  99  ARG99       0.1354
     66  N         64.6110  -44.5600   11.9870 N.3   102  LEU102     -0.1245
     67  CA        65.4870  -44.1590   10.8940 C.3   102  LEU102      0.1561
     68  C         66.8320  -44.8980   10.9540 C.2   102  LEU102      0.2260
     69  O         67.4540  -45.1370    9.9210 O.2   102  LEU102     -0.2867
     70  CB        65.7070  -42.6480   10.8940 C.3   102  LEU102      0.0270
     71  CG        66.8230  -42.1910    9.9550 C.3   102  LEU102      0.0019
     72  CD1       66.3570  -42.1540    8.5130 C.3   102  LEU102      0.0001
     73  CD2       67.3810  -40.8550   10.3860 C.3   102  LEU102      0.0001
     74  N         64.5830  -39.1230    5.9500 N.3   126  GLY126     -0.1210
     75  CA        64.3580  -39.1530    7.3970 C.3   126  GLY126      0.1956
     76  C         64.3130  -37.7930    8.0830 C.2   126  GLY126      0.2612
     77  O         63.8470  -37.6810    9.2260 O.2   126  GLY126     -0.2717
     78  N         64.8070  -36.7640    7.3940 N.am  127  GLY127     -0.1942
     79  CA        64.7620  -35.3970    7.8980 C.3   127  GLY127      0.2014
     80  C         65.8530  -35.0460    8.8890 C.2   127  GLY127      0.2638
     81  O         65.6630  -34.1770    9.7420 O.2   127  GLY127     -0.2714
     82  N         66.9930  -35.7280    8.7840 N.am  128  VAL128     -0.1977
     83  CA        68.1730  -35.4040    9.5940 C.3   128  VAL128      0.1596
     84  C         69.3370  -34.9310    8.7160 C.2   128  VAL128      0.2287
     85  O         69.3310  -35.1330    7.5010 O.2   128  VAL128     -0.2864
     86  CB        68.6130  -36.5960   10.5000 C.3   128  VAL128      0.0276
     87  CG1       67.4290  -37.1460   11.2960 C.3   128  VAL128      0.0022
     88  CG2       69.2660  -37.7010    9.6850 C.3   128  VAL128      0.0022
@<TRIPOS>BOND
     1    37    36    2
     2    36    35    1
     3    35    34    1
     4    35    38    1
     5    39    38    1
     6    39    40    1
     7    40    41    1
     8    41    42    2
     9    74    75    1
    10    42    44    1
    11    42    43    1
    12    78    79    1
    13    78    76   am
    14    75    76    1
    15    85    84    2
    16    79    80    1
    17    76    77    2
    18    25    24    2
    19    72    71    1
    20    84    83    1
    21    82    80   am
    22    82    83    1
    23    80    81    2
    24    24    23    1
    25    83    86    1
    26    23    22    1
    27    23    26    1
    28    21    19    1
    29    88    86    1
    30    69    68    2
    31    71    73    1
    32    71    70    1
    33    30    28   ar
    34    30    32   ar
    35    28    27   ar
    36    33    32    1
    37    32    31   ar
    38    86    87    1
    39    27    26    1
    40    27    29   ar
    41    67    70    1
    42    67    68    1
    43    67    66    1
    44    19    18    1
    45    31    29   ar
    46    18    20    1
    47    18    15    1
    48    15    16    1
    49    15    14    1
    50    16    17    2
    51    48    47    2
    52    52    54   ar
    53    52    50   ar
    54    58    57    2
    55    47    46    1
    56    47    55   am
    57    54    53   ar
    58    49    50    1
    59    49    46    1
    60    57    56    1
    61    56    55    1
    62    56    59    1
    63    50    51   ar
    64    65    63    1
    65    46    45    1
    66    63    64    1
    67    63    62    2
    68    59    60    1
    69    53    51   ar
    70    60    61    1
    71    11    12    1
    72    11     8    1
    73    62    61    1
    74    12    13    1
    75     9     8    1
    76     9    10    2
    77     8     7    1
    78    13     7    1
    79     6     5    1
    80     5     2    1
    81     2     1    1
    82     2     3    1
    83     3     4    2
