@<TRIPOS>MOLECULE
tmp/2pklA02.pdb
 115 110 0 0 0
SMALL
GASTEIGER

@<TRIPOS>ATOM
      1  N          7.6170   26.0130   25.2810 N.3     1  GLN1       -0.1245
      2  CA         8.9010   26.5960   24.7920 C.3     1  GLN1        0.1566
      3  C          9.6770   25.5200   24.0230 C.2     1  GLN1        0.2260
      4  O          9.9470   24.4340   24.5430 O.2     1  GLN1       -0.2867
      5  CB         9.7370   27.1040   25.9750 C.3     1  GLN1        0.0367
      6  CG         8.9370   27.4000   27.2500 C.3     1  GLN1        0.0905
      7  CD         7.7160   28.2870   27.0160 C.2     1  GLN1        0.2608
      8  OE1        7.8360   29.4380   26.5870 O.2     1  GLN1       -0.2717
      9  NE2        6.5310   27.7500   27.3050 N.am    1  GLN1       -0.0878
     10  N         12.7780   25.0270   23.2990 N.3     3  ILE3       -0.1231
     11  CA        14.2170   25.0810   23.5040 C.3     3  ILE3        0.1692
     12  C         14.8530   23.8470   22.8600 C.2     3  ILE3        0.2592
     13  O         15.8030   23.9570   22.0780 O.2     3  ILE3       -0.2718
     14  CB        14.5690   25.0800   25.0030 C.3     3  ILE3        0.0266
     15  CG1       13.9410   26.2930   25.6880 C.3     3  ILE3        0.0019
     16  CG2       16.0770   25.0730   25.1780 C.3     3  ILE3        0.0020
     17  CD1       14.4200   27.6140   25.1470 C.3     3  ILE3        0.0001
     18  N         14.2990   22.6800   23.1950 N.am    4  PHE4       -0.1976
     19  CA        14.7650   21.3810   22.7080 C.3     4  PHE4        0.1639
     20  C         14.8050   21.2610   21.1800 C.2     4  PHE4        0.2290
     21  O         15.8370   20.9020   20.6100 O.2     4  PHE4       -0.2864
     22  CB        13.8810   20.2790   23.2950 C.3     4  PHE4        0.0560
     23  CG        14.3370   18.8890   22.9700 C.ar    4  PHE4       -0.0200
     24  CD1       15.5030   18.3780   23.5250 C.ar    4  PHE4       -0.0042
     25  CD2       13.5880   18.0800   22.1130 C.ar    4  PHE4       -0.0042
     26  CE1       15.9200   17.0720   23.2310 C.ar    4  PHE4       -0.0003
     27  CE2       13.9950   16.7780   21.8130 C.ar    4  PHE4       -0.0003
     28  CZ        15.1610   16.2720   22.3710 C.ar    4  PHE4       -0.0000
     29  N         21.4240   17.6050   24.0380 N.3    54  PRO54      -0.2102
     30  CA        21.2090   17.9660   25.4370 C.3    54  PRO54       0.1504
     31  C         21.5160   16.7760   26.3310 C.2    54  PRO54       0.2576
     32  O         21.1660   15.6450   26.0000 O.2    54  PRO54      -0.2718
     33  CB        19.7320   18.3490   25.4660 C.3    54  PRO54       0.0282
     34  CG        19.5340   18.9670   24.1260 C.3    54  PRO54       0.0208
     35  CD        20.2710   18.0030   23.2100 C.3    54  PRO54       0.0893
     36  N         22.1980   17.0370   27.4420 N.am   55  GLY55      -0.1957
     37  CA        22.5270   15.9960   28.4090 C.3    55  GLY55       0.1869
     38  C         23.4560   14.8620   28.0250 C.2    55  GLY55       0.2309
     39  O         23.8230   14.0560   28.8800 O.2    55  GLY55      -0.2863
     40  N         26.8880   14.5280   30.0010 N.3    58  ASN58      -0.1240
     41  CA        26.7450   14.0490   31.3700 C.3    58  ASN58       0.1653
     42  C         26.9110   12.5350   31.5020 C.2    58  ASN58       0.2266
     43  O         27.3410   12.0490   32.5460 O.2    58  ASN58      -0.2867
     44  CB        25.3920   14.4740   31.9170 C.3    58  ASN58       0.1155
     45  CG        25.3890   15.9010   32.4250 C.2    58  ASN58       0.2627
     46  OD1       26.0450   16.7830   31.8590 O.2    58  ASN58      -0.2716
     47  ND2       24.6330   16.1410   33.4950 N.am   58  ASN58      -0.0877
     48  N         21.9000    6.9910   34.8030 N.3   157  PHE157     -0.1241
     49  CA        21.7430    8.2290   34.0580 C.3   157  PHE157      0.1605
     50  C         21.2910    8.0010   32.6200 C.2   157  PHE157      0.2264
     51  O         20.6640    8.8740   32.0190 O.2   157  PHE157     -0.2867
     52  CB        23.0350    9.0500   34.0590 C.3   157  PHE157      0.0534
     53  CG        22.8680   10.4230   33.4520 C.ar  157  PHE157     -0.0203
     54  CD1       23.8190   10.9370   32.5750 C.ar  157  PHE157     -0.0042
     55  CD2       21.7240   11.1810   33.7180 C.ar  157  PHE157     -0.0042
     56  CE1       23.6320   12.1780   31.9680 C.ar  157  PHE157     -0.0003
     57  CE2       21.5280   12.4230   33.1170 C.ar  157  PHE157     -0.0003
     58  CZ        22.4840   12.9240   32.2380 C.ar  157  PHE157     -0.0000
     59  N         17.4590    7.5680   32.5370 N.3   160  GLU160     -0.1231
     60  CA        16.8150    8.8600   32.7090 C.3   160  GLU160      0.1699
     61  C         16.9630    9.7480   31.4720 C.2   160  GLU160      0.2592
     62  O         16.0400   10.4630   31.0920 O.2   160  GLU160     -0.2718
     63  CB        17.4030    9.5820   33.9100 C.3   160  GLU160      0.0402
     64  CG        17.0070   11.0390   33.9870 C.3   160  GLU160      0.1161
     65  CD        17.9800   11.8380   34.8160 C.2   160  GLU160      0.3649
     66  OE1       18.0750   11.5670   36.0340 O.co2 160  GLU160     -0.2457
     67  OE2       18.6590   12.7260   34.2440 O.co2 160  GLU160     -0.2457
     68  N         18.1290    9.7260   30.8480 N.am  161  LEU161     -0.1980
     69  CA        18.2930   10.5460   29.6770 C.3   161  LEU161      0.1596
     70  C         17.3510   10.0010   28.6050 C.2   161  LEU161      0.2287
     71  O         16.6360   10.7590   27.9630 O.2   161  LEU161     -0.2864
     72  CB        19.7430   10.5110   29.1990 C.3   161  LEU161      0.0297
     73  CG        20.1380   11.5740   28.1610 C.3   161  LEU161      0.0022
     74  CD1       20.0900   12.9630   28.7800 C.3   161  LEU161      0.0001
     75  CD2       21.5370   11.2960   27.6450 C.3   161  LEU161      0.0001
     76  N         13.7710   10.9500   29.0800 N.3   164  ASN164     -0.1225
     77  CA        13.5060   12.3420   28.7360 C.3   164  ASN164      0.1785
     78  C         13.2910   12.5590   27.2470 C.2   164  ASN164      0.2597
     79  O         12.3350   13.2250   26.8400 O.2   164  ASN164     -0.2718
     80  CB        14.6340   13.2450   29.2260 C.3   164  ASN164      0.1169
     81  CG        14.5720   13.4920   30.7180 C.2   164  ASN164      0.2627
     82  OD1       13.5310   13.3120   31.3500 O.2   164  ASN164     -0.2716
     83  ND2       15.6880   13.9270   31.2880 N.am  164  ASN164     -0.0877
     84  N         14.1710   12.0050   26.4240 N.am  165  TYR165     -0.1976
     85  CA        13.9920   12.1840   24.9980 C.3   165  TYR165      0.1639
     86  C         12.6350   11.6500   24.5860 C.2   165  TYR165      0.2290
     87  O         11.9850   12.2100   23.7110 O.2   165  TYR165     -0.2864
     88  CB        15.1120   11.5030   24.2100 C.3   165  TYR165      0.0560
     89  CG        16.3450   12.3710   24.1220 C.ar  165  TYR165     -0.0198
     90  CD1       17.1590   12.5710   25.2310 C.ar  165  TYR165     -0.0009
     91  CD2       16.6550   13.0510   22.9510 C.ar  165  TYR165     -0.0009
     92  CE1       18.2440   13.4260   25.1750 C.ar  165  TYR165      0.0417
     93  CE2       17.7410   13.9140   22.8860 C.ar  165  TYR165      0.0417
     94  CZ        18.5310   14.0990   24.0010 C.ar  165  TYR165      0.1957
     95  OH        19.6070   14.9580   23.9440 O.3   165  TYR165     -0.2866
     96  N         10.0830   14.1950   25.2400 N.3   168  GLU168     -0.1245
     97  CA        10.2240   15.1960   24.1900 C.3   168  GLU168      0.1567
     98  C          9.4860   14.7630   22.9260 C.2   168  GLU168      0.2260
     99  O          8.8440   15.5740   22.2550 O.2   168  GLU168     -0.2867
    100  CB        11.7040   15.4180   23.8710 C.3   168  GLU168      0.0388
    101  CG        12.5150   16.0250   25.0080 C.3   168  GLU168      0.1160
    102  CD        12.0260   17.4130   25.4160 C.2   168  GLU168      0.3649
    103  OE1       11.2320   18.0160   24.6600 O.co2 168  GLU168     -0.2457
    104  OE2       12.4460   17.9030   26.4860 O.co2 168  GLU168     -0.2457
    105  N          5.8830   15.1880   23.5380 N.3   171  ARG171     -0.1245
    106  CA         5.6660   16.6250   23.5480 C.3   171  ARG171      0.1563
    107  C          5.4790   17.1150   22.1210 C.2   171  ARG171      0.2260
    108  O          4.5550   17.8640   21.8270 O.2   171  ARG171     -0.2867
    109  CB         6.8680   17.3110   24.1990 C.3   171  ARG171      0.0307
    110  CG         6.7610   18.8200   24.3620 C.3   171  ARG171      0.0489
    111  CD         7.8050   19.3160   25.3640 C.3   171  ARG171      0.2205
    112  NE         7.5800   18.7410   26.6950 N.pl3 171  ARG171     -0.0865
    113  CZ         8.4510   18.7910   27.7020 C.cat 171  ARG171      0.5346
    114  NH1        9.6260   19.3920   27.5460 N.pl3 171  ARG171      0.1354
    115  NH2        8.1480   18.2330   28.8690 N.pl3 171  ARG171      0.1354
@<TRIPOS>BOND
     1    21    20    2
     2    20    19    1
     3    27    25   ar
     4    27    28   ar
     5   108   107    2
     6    13    12    2
     7    25    23   ar
     8   107   106    1
     9    99    98    2
    10    28    26   ar
    11    19    18    1
    12    19    22    1
    13    12    18   am
    14    12    11    1
    15    93    91   ar
    16    93    94   ar
    17    98    97    1
    18    91    89   ar
    19    23    22    1
    20    23    24   ar
    21    35    29    1
    22    35    34    1
    23    26    24   ar
    24    10    11    1
    25    11    14    1
    26   105   106    1
    27   106   109    1
    28    87    86    2
    29   100    97    1
    30   100   101    1
    31    95    94    1
    32    94    92   ar
    33     3     4    2
    34     3     2    1
    35    29    30    1
    36    89    88    1
    37    89    90   ar
    38    34    33    1
    39    97    96    1
    40   109   110    1
    41    88    85    1
    42   110   111    1
    43    86    85    1
    44   103   102   ar
    45     2     1    1
    46     2     5    1
    47    85    84    1
    48    14    16    1
    49    14    15    1
    50   101   102    1
    51    17    15    1
    52    92    90   ar
    53   111   112    1
    54   102   104   ar
    55    30    33    1
    56    30    31    1
    57     5     6    1
    58    32    31    2
    59    31    36   am
    60    84    78   am
    61     8     7    2
    62   112   113    2
    63    79    78    2
    64     7     6    1
    65     7     9   am
    66    78    77    1
    67    36    37    1
    68   114   113    1
    69    75    73    1
    70   113   115    1
    71    71    70    2
    72    38    37    1
    73    38    39    2
    74    73    74    1
    75    73    72    1
    76    70    69    1
    77    77    76    1
    78    77    80    1
    79    72    69    1
    80    80    81    1
    81    69    68    1
    82    40    41    1
    83    81    83   am
    84    81    82    2
    85    68    61   am
    86    62    61    2
    87    41    42    1
    88    41    44    1
    89    61    60    1
    90    42    43    2
    91    46    45    2
    92    44    45    1
    93    56    58   ar
    94    56    54   ar
    95    51    50    2
    96    58    57   ar
    97    45    47   am
    98    59    60    1
    99    54    53   ar
   100    50    49    1
   101    60    63    1
   102    57    55   ar
   103    53    55   ar
   104    53    52    1
   105    63    64    1
   106    64    65    1
   107    49    52    1
   108    49    48    1
   109    67    65   ar
   110    65    66   ar
