@<TRIPOS>MOLECULE
tmp/2pklA00.pdb
 109 101 0 0 0
SMALL
GASTEIGER

@<TRIPOS>ATOM
      1  N         30.7220    9.3610   10.1550 N.3    43  LEU43      -0.1231
      2  CA        30.8760    8.9720   11.5480 C.3    43  LEU43       0.1693
      3  C         31.4150   10.1390   12.3650 C.2    43  LEU43       0.2591
      4  O         31.0900   10.2990   13.5450 O.2    43  LEU43      -0.2718
      5  CB        31.8210    7.7800   11.6520 C.3    43  LEU43       0.0284
      6  CG        32.0360    7.1900   13.0450 C.3    43  LEU43       0.0019
      7  CD1       30.6960    6.8760   13.6960 C.3    43  LEU43       0.0001
      8  CD2       32.8850    5.9260   12.9160 C.3    43  LEU43       0.0001
      9  N         32.2460   10.9530   11.7230 N.am   44  VAL44      -0.1980
     10  CA        32.8420   12.1120   12.3760 C.3    44  VAL44       0.1595
     11  C         31.7580   13.1030   12.7760 C.2    44  VAL44       0.2287
     12  O         31.7740   13.6400   13.8850 O.2    44  VAL44      -0.2864
     13  CB        33.8450   12.8250   11.4430 C.3    44  VAL44       0.0276
     14  CG1       34.3810   14.0740   12.1190 C.3    44  VAL44       0.0022
     15  CG2       34.9840   11.8830   11.0750 C.3    44  VAL44       0.0022
     16  N         29.6880   11.9510   15.7360 N.3    47  VAL47      -0.1231
     17  CA        30.3240   12.1940   17.0200 C.3    47  VAL47       0.1692
     18  C         30.1130   13.6270   17.5290 C.2    47  VAL47       0.2591
     19  O         29.8400   13.8280   18.7140 O.2    47  VAL47      -0.2718
     20  CB        31.8430   11.8690   16.9610 C.3    47  VAL47       0.0266
     21  CG1       32.5310   12.3420   18.2320 C.3    47  VAL47       0.0020
     22  CG2       32.0410   10.3610   16.8000 C.3    47  VAL47       0.0020
     23  N         30.2340   14.6130   16.6420 N.am   48  LYS48      -0.1980
     24  CA        30.0570   16.0190   17.0140 C.3    48  LYS48       0.1596
     25  C         28.5960   16.3150   17.3340 C.2    48  LYS48       0.2287
     26  O         28.2900   17.0860   18.2430 O.2    48  LYS48      -0.2864
     27  CB        30.5090   16.9340   15.8770 C.3    48  LYS48       0.0298
     28  CG        31.9440   16.7210   15.4070 C.3    48  LYS48       0.0038
     29  CD        32.2510   17.5960   14.1930 C.3    48  LYS48       0.0206
     30  CE        33.6980   17.4610   13.7310 C.3    48  LYS48       0.1093
     31  NZ        33.9990   18.4190   12.6200 N.3    48  LYS48      -0.1314
     32  N         27.6750   14.7130   20.9230 N.3    51  LYS51      -0.1245
     33  CA        28.2720   15.4970   22.0040 C.3    51  LYS51       0.1561
     34  C         27.5950   16.8590   22.1590 C.2    51  LYS51       0.2260
     35  O         27.8350   17.5700   23.1330 O.2    51  LYS51      -0.2867
     36  CB        29.7740   15.6900   21.7640 C.3    51  LYS51       0.0271
     37  CG        30.6490   14.5840   22.3350 C.3    51  LYS51       0.0035
     38  CD        32.1280   14.8410   22.0490 C.3    51  LYS51       0.0206
     39  CE        33.0580   14.1030   23.0290 C.3    51  LYS51       0.1093
     40  NZ        33.1960   14.7780   24.3700 N.3    51  LYS51      -0.1314
     41  N         23.8500   14.7860   26.7600 N.3    56  PHE56      -0.1241
     42  CA        24.7210   13.7040   26.3460 C.3    56  PHE56       0.1605
     43  C         26.0710   13.6780   27.0630 C.2    56  PHE56       0.2264
     44  O         26.5220   12.6120   27.4750 O.2    56  PHE56      -0.2867
     45  CB        24.9530   13.7480   24.8380 C.3    56  PHE56       0.0534
     46  CG        25.7150   12.5600   24.3150 C.ar   56  PHE56      -0.0203
     47  CD1       25.0710   11.3520   24.0810 C.ar   56  PHE56      -0.0042
     48  CD2       27.0860   12.6440   24.0740 C.ar   56  PHE56      -0.0042
     49  CE1       25.7840   10.2460   23.6100 C.ar   56  PHE56      -0.0003
     50  CE2       27.7980   11.5430   23.6060 C.ar   56  PHE56      -0.0003
     51  CZ        27.1480   10.3450   23.3730 C.ar   56  PHE56      -0.0000
     52  N         31.9710    8.9130   30.2010 N.3    61  VAL61      -0.1245
     53  CA        32.8080    8.9950   29.0180 C.3    61  VAL61       0.1561
     54  C         32.8290    7.7110   28.1860 C.2    61  VAL61       0.2260
     55  O         32.7420    7.7620   26.9570 O.2    61  VAL61      -0.2867
     56  CB        34.2530    9.3550   29.4040 C.3    61  VAL61       0.0252
     57  CG1       34.7920   10.3960   28.4430 C.3    61  VAL61       0.0019
     58  CG2       34.3040    9.8620   30.8510 C.3    61  VAL61       0.0019
     59  N         29.5320    7.0630   26.5600 N.3    64  GLN64      -0.1231
     60  CA        29.3480    7.9830   25.4510 C.3    64  GLN64       0.1698
     61  C         29.9200    7.3740   24.1760 C.2    64  GLN64       0.2592
     62  O         29.3100    7.4530   23.1130 O.2    64  GLN64      -0.2718
     63  CB        30.0560    9.3030   25.7230 C.3    64  GLN64       0.0381
     64  CG        29.2560   10.3150   26.4820 C.3    64  GLN64       0.0905
     65  CD        30.0470   11.5900   26.7240 C.2    64  GLN64       0.2608
     66  OE1       30.4870   12.2600   25.7880 O.2    64  GLN64      -0.2717
     67  NE2       30.2350   11.9260   27.9870 N.am   64  GLN64      -0.0878
     68  N         31.0980    6.7710   24.2900 N.am   65  MET65      -0.1979
     69  CA        31.7740    6.1620   23.1490 C.3    65  MET65       0.1605
     70  C         31.0720    4.8900   22.6650 C.2    65  MET65       0.2287
     71  O         31.0340    4.5970   21.4620 O.2    65  MET65      -0.2864
     72  CB        33.2240    5.8530   23.5310 C.3    65  MET65       0.0413
     73  CG        34.1470    5.6390   22.3490 C.3    65  MET65       0.0598
     74  SD        35.8650    5.5950   22.8930 S.3    65  MET65      -0.1393
     75  CE        36.1320    7.3470   23.2720 C.3    65  MET65       0.0692
     76  N         27.5690    5.4580   20.7270 N.3    68  ILE68      -0.1245
     77  CA        27.8260    5.9440   19.3790 C.3    68  ILE68       0.1561
     78  C         28.2680    4.7850   18.5020 C.2    68  ILE68       0.2260
     79  O         27.7970    4.6250   17.3750 O.2    68  ILE68      -0.2867
     80  CB        28.9460    7.0100   19.3440 C.3    68  ILE68       0.0252
     81  CG1       28.4580    8.3200   19.9620 C.3    68  ILE68       0.0019
     82  CG2       29.4040    7.2280   17.9000 C.3    68  ILE68       0.0019
     83  CD1       29.5650    9.3260   20.1940 C.3    68  ILE68       0.0001
     84  N         40.3860    3.5860    8.5980 N.3   224  GLU224     -0.1231
     85  CA        40.8870    3.2930    9.9340 C.3   224  GLU224      0.1699
     86  C         39.8240    2.9430   10.9900 C.2   224  GLU224      0.2592
     87  O         39.7700    1.8140   11.4800 O.2   224  GLU224     -0.2718
     88  CB        41.7220    4.4770   10.4140 C.3   224  GLU224      0.0402
     89  CG        42.1240    4.4140   11.8740 C.3   224  GLU224      0.1161
     90  CD        42.7830    5.6980   12.3400 C.2   224  GLU224      0.3649
     91  OE1       42.2320    6.7850   12.0500 O.co2 224  GLU224     -0.2457
     92  OE2       43.8450    5.6220   12.9990 O.co2 224  GLU224     -0.2457
     93  N         38.9840    3.9150   11.3350 N.am  225  MET225     -0.1979
     94  CA        37.9510    3.7220   12.3560 C.3   225  MET225      0.1605
     95  C         36.8460    2.7320   11.9980 C.2   225  MET225      0.2287
     96  O         36.4270    1.9350   12.8390 O.2   225  MET225     -0.2864
     97  CB        37.3110    5.0660   12.7220 C.3   225  MET225      0.0413
     98  CG        38.3120    6.1420   13.1130 C.3   225  MET225      0.0598
     99  SD        37.5170    7.5900   13.8050 S.3   225  MET225     -0.1393
    100  CE        36.8310    8.3690   12.3270 C.3   225  MET225      0.0692
    101  N         38.0550   -0.6520   12.6450 N.3   228  GLU228     -0.1245
    102  CA        38.2050   -0.9100   14.0690 C.3   228  GLU228      0.1567
    103  C         36.8660   -1.1430   14.7700 C.2   228  GLU228      0.2260
    104  O         36.7570   -1.9950   15.6550 O.2   228  GLU228     -0.2867
    105  CB        38.9350    0.2620   14.7340 C.3   228  GLU228      0.0388
    106  CG        39.3500    0.0090   16.1810 C.3   228  GLU228      0.1160
    107  CD        39.8760    1.2650   16.8740 C.2   228  GLU228      0.3649
    108  OE1       40.8010    1.9140   16.3320 O.co2 228  GLU228     -0.2457
    109  OE2       39.3670    1.6010   17.9680 O.co2 228  GLU228     -0.2457
@<TRIPOS>BOND
     1    84    85    1
     2    85    88    1
     3    85    86    1
     4     1     2    1
     5    88    89    1
     6    86    93   am
     7    86    87    2
     8    15    13    1
     9    93    94    1
    10    13    14    1
    11    13    10    1
    12     2     5    1
    13     2     3    1
    14     5     6    1
    15     9     3   am
    16     9    10    1
    17    89    90    1
    18    95    94    1
    19    95    96    2
    20    91    90   ar
    21   100    99    1
    22    90    92   ar
    23    94    97    1
    24     3     4    2
    25    10    11    1
    26    31    30    1
    27   101   102    1
    28    97    98    1
    29    11    12    2
    30     8     6    1
    31     6     7    1
    32    98    99    1
    33    30    29    1
    34   102   105    1
    35   102   103    1
    36    29    28    1
    37   105   106    1
    38   103   104    2
    39    28    27    1
    40    16    17    1
    41    27    24    1
    42   106   107    1
    43   108   107   ar
    44    23    24    1
    45    23    18   am
    46    22    20    1
    47   107   109   ar
    48    20    17    1
    49    20    21    1
    50    24    25    1
    51    17    18    1
    52    25    26    2
    53    79    78    2
    54    18    19    2
    55    82    80    1
    56    78    77    1
    57    80    77    1
    58    80    81    1
    59    77    76    1
    60    81    83    1
    61    32    33    1
    62    71    70    2
    63    36    33    1
    64    36    37    1
    65    33    34    1
    66    38    37    1
    67    38    39    1
    68    34    35    2
    69    73    74    1
    70    73    72    1
    71    70    69    1
    72    74    75    1
    73    39    40    1
    74    62    61    2
    75    69    72    1
    76    69    68    1
    77    51    50   ar
    78    51    49   ar
    79    50    48   ar
    80    49    47   ar
    81    48    46   ar
    82    47    46   ar
    83    61    68   am
    84    61    60    1
    85    46    45    1
    86    45    42    1
    87    60    63    1
    88    60    59    1
    89    63    64    1
    90    66    65    2
    91    42    41    1
    92    42    43    1
    93    64    65    1
    94    65    67   am
    95    55    54    2
    96    43    44    2
    97    54    53    1
    98    57    56    1
    99    53    56    1
   100    53    52    1
   101    56    58    1
