@<TRIPOS>MOLECULE
tmp/2pknA00.pdb
 186 176 0 0 0
SMALL
GASTEIGER

@<TRIPOS>ATOM
      1  N         11.3490   67.6380   19.3920 N.3   171  SER171     -0.1202
      2  CA        12.1880   66.6420   18.7000 C.3   171  SER171      0.2020
      3  C         13.0220   65.7150   19.5760 C.2   171  SER171      0.2618
      4  O         12.6470   64.5700   19.8470 O.2   171  SER171     -0.2717
      5  CB        13.1490   67.3680   17.7470 C.3   171  SER171      0.2103
      6  OG        12.5960   67.5100   16.4530 O.3   171  SER171     -0.2182
      7  N         14.1640   66.2490   19.9940 N.am  172  GLN172     -0.1979
      8  CA        15.2230   65.5240   20.6780 C.3   172  GLN172      0.1601
      9  C         14.7670   64.7920   21.9340 C.2   172  GLN172      0.2287
     10  O         15.4130   63.8360   22.3590 O.2   172  GLN172     -0.2864
     11  CB        16.3500   66.4860   21.0030 C.3   172  GLN172      0.0394
     12  CG        17.0790   67.0940   19.8070 C.3   172  GLN172      0.0908
     13  CD        17.6750   66.0460   18.9030 C.2   172  GLN172      0.2608
     14  OE1       18.4100   65.1680   19.3970 O.2   172  GLN172     -0.2717
     15  NE2       17.3020   66.0250   17.6630 N.am  172  GLN172     -0.0878
     16  N         10.2150   66.3140   12.6870 N.3   195  ASN195     -0.1240
     17  CA        10.3000   65.6370   11.3980 C.3   195  ASN195      0.1653
     18  C          9.1750   64.6050   11.2590 C.2   195  ASN195      0.2266
     19  O          8.3170   64.5070   12.1400 O.2   195  ASN195     -0.2867
     20  CB        11.7110   65.0920   11.1120 C.3   195  ASN195      0.1155
     21  CG        12.0760   63.8710   11.9500 C.2   195  ASN195      0.2627
     22  OD1       11.2230   63.0890   12.3630 O.2   195  ASN195     -0.2716
     23  ND2       13.3700   63.7020   12.1860 N.am  195  ASN195     -0.0877
     24  N          9.2870   61.6310   13.9690 N.3   198  GLU198     -0.1245
     25  CA         8.9520   62.2420   15.2550 C.3   198  GLU198      0.1567
     26  C          7.4630   62.5950   15.3510 C.2   198  GLU198      0.2260
     27  O          6.8710   62.5150   16.4260 O.2   198  GLU198     -0.2867
     28  CB         9.8160   63.4870   15.4880 C.3   198  GLU198      0.0388
     29  CG        11.3120   63.2010   15.6690 C.3   198  GLU198      0.1160
     30  CD        12.2000   64.4330   15.4990 C.2   198  GLU198      0.3649
     31  OE1       11.7290   65.4760   14.9960 O.co2 198  GLU198     -0.2457
     32  OE2       13.3940   64.3600   15.8590 O.co2 198  GLU198     -0.2457
     33  N          9.0840   68.4720    8.7650 N.3   223  THR223     -0.1203
     34  CA        10.1870   68.4380    7.8080 C.3   223  THR223      0.1994
     35  C         10.4200   67.0020    7.3250 C.2   223  THR223      0.2618
     36  O         10.2150   66.0370    8.0760 O.2   223  THR223     -0.2717
     37  CB        11.4780   69.0600    8.3860 C.3   223  THR223      0.1784
     38  OG1       11.9120   68.2900    9.5090 O.3   223  THR223     -0.2211
     39  CG2       11.2550   70.5250    8.8210 C.3   223  THR223      0.0376
     40  N         10.8050   66.8770    6.0570 N.am  224  LEU224     -0.1965
     41  CA        10.8780   65.5830    5.3720 C.3   224  LEU224      0.1728
     42  C         12.2360   65.3310    4.6960 C.2   224  LEU224      0.2617
     43  O         12.3200   64.5870    3.7130 O.2   224  LEU224     -0.2715
     44  CB         9.7540   65.4890    4.3250 C.3   224  LEU224      0.0311
     45  CG         8.3870   66.0790    4.6820 C.3   224  LEU224      0.0022
     46  CD1        7.5360   66.2450    3.4330 C.3   224  LEU224      0.0001
     47  CD2        7.6980   65.2080    5.6970 C.3   224  LEU224      0.0001
     48  N         13.2960   65.9480    5.2160 N.am  225  GLY225     -0.1941
     49  CA        14.6290   65.7890    4.6350 C.3   225  GLY225      0.1998
     50  C         14.6880   66.2980    3.2040 C.2   225  GLY225      0.2480
     51  O         14.2770   67.4360    2.9380 O.2   225  GLY225     -0.2729
     52  N         15.1520   65.4510    2.2580 N.am  226  PRO226     -0.2726
     53  CA        15.2600   65.8900    0.8590 C.3   226  PRO226      0.1402
     54  C         13.8930   65.9940    0.1760 C.2   226  PRO226      0.2269
     55  O         13.8030   66.5020   -0.9370 O.2   226  PRO226     -0.2865
     56  CB        16.0860   64.7830    0.1870 C.3   226  PRO226      0.0296
     57  CG        16.4530   63.8110    1.2620 C.3   226  PRO226      0.0237
     58  CD        15.5470   64.0400    2.4200 C.3   226  PRO226      0.0939
     59  N         11.4870   67.7620    1.3810 N.3   228  GLY228     -0.1210
     60  CA        10.9730   69.1020    1.6930 C.3   228  GLY228      0.1956
     61  C         10.3060   69.2170    3.0480 C.2   228  GLY228      0.2611
     62  O         10.8130   68.6990    4.0390 O.2   228  GLY228     -0.2717
     63  N          9.1700   69.9120    3.0840 N.am  229  VAL229     -0.1979
     64  CA         8.4390   70.2110    4.3110 C.3   229  VAL229      0.1595
     65  C          6.9110   70.2940    4.0590 C.2   229  VAL229      0.2287
     66  O          6.4760   70.7190    2.9890 O.2   229  VAL229     -0.2864
     67  CB         8.9600   71.5330    4.9580 C.3   229  VAL229      0.0276
     68  CG1        8.7160   72.7440    4.0400 C.3   229  VAL229      0.0022
     69  CG2        8.3380   71.7510    6.3360 C.3   229  VAL229      0.0022
     70  N         12.7130   71.1330   -1.4490 N.3   243  VAL243     -0.1231
     71  CA        14.0040   71.7000   -1.0180 C.3   243  VAL243      0.1692
     72  C         14.6620   72.5320   -2.1140 C.2   243  VAL243      0.2591
     73  O         14.3090   72.4050   -3.2900 O.2   243  VAL243     -0.2718
     74  CB        15.0190   70.6040   -0.5660 C.3   243  VAL243      0.0266
     75  CG1       14.3860   69.6260    0.4090 C.3   243  VAL243      0.0020
     76  CG2       15.6300   69.8690   -1.7770 C.3   243  VAL243      0.0020
     77  N         15.5970   73.3920   -1.7120 N.am  244  VAL244     -0.1980
     78  CA        16.5320   74.0410   -2.6270 C.3   244  VAL244      0.1595
     79  C         17.6340   73.0170   -2.9450 C.2   244  VAL244      0.2287
     80  O         18.2880   72.5050   -2.0150 O.2   244  VAL244     -0.2864
     81  CB        17.1580   75.3240   -2.0180 C.3   244  VAL244      0.0276
     82  CG1       18.2270   75.9270   -2.9670 C.3   244  VAL244      0.0022
     83  CG2       16.0760   76.3720   -1.6930 C.3   244  VAL244      0.0022
     84  N         20.8030   70.9240   -3.4970 N.3   246  GLU246     -0.1245
     85  CA        22.1670   71.0730   -2.9830 C.3   246  GLU246      0.1567
     86  C         23.2270   70.7690   -4.0420 C.2   246  GLU246      0.2260
     87  O         23.0000   69.9850   -4.9590 O.2   246  GLU246     -0.2867
     88  CB        22.3850   70.2350   -1.7150 C.3   246  GLU246      0.0388
     89  CG        21.5880   68.9330   -1.6540 C.3   246  GLU246      0.1160
     90  CD        22.3800   67.7090   -2.0730 C.2   246  GLU246      0.3649
     91  OE1       23.3760   67.8470   -2.8210 O.co2 246  GLU246     -0.2457
     92  OE2       21.9930   66.5960   -1.6520 O.co2 246  GLU246     -0.2457
     93  N         26.6170   67.7280   -0.2010 N.3   249  GLN249     -0.1245
     94  CA        25.9540   67.1280    0.9490 C.3   249  GLN249      0.1566
     95  C         26.8980   67.1040    2.1570 C.2   249  GLN249      0.2260
     96  O         26.7830   66.2260    3.0200 O.2   249  GLN249     -0.2867
     97  CB        25.4430   65.7270    0.6040 C.3   249  GLN249      0.0367
     98  CG        26.5620   64.8630    0.0590 C.3   249  GLN249      0.0905
     99  CD        26.0650   63.5170   -0.3640 C.2   249  GLN249      0.2608
    100  OE1       25.1190   63.4050   -1.1570 O.2   249  GLN249     -0.2717
    101  NE2       26.7020   62.4770    0.1600 N.am  249  GLN249     -0.0878
    102  N         25.3650   67.5680    7.4090 N.3   252  PRO252     -0.2102
    103  CA        23.9630   67.7430    7.7590 C.3   252  PRO252      0.1504
    104  C         23.7200   68.2430    9.1930 C.2   252  PRO252      0.2576
    105  O         22.5560   68.4030    9.5920 O.2   252  PRO252     -0.2718
    106  CB        23.3830   66.3410    7.5650 C.3   252  PRO252      0.0282
    107  CG        24.5090   65.4340    7.8450 C.3   252  PRO252      0.0208
    108  CD        25.7570   66.1470    7.4120 C.3   252  PRO252      0.0893
    109  N         24.7850   68.4920    9.9630 N.am  253  THR253     -0.1939
    110  CA        24.5940   69.0420   11.3070 C.3   253  THR253      0.2028
    111  C         23.9930   70.4410   11.1840 C.2   253  THR253      0.2643
    112  O         24.3850   71.2170   10.3130 O.2   253  THR253     -0.2714
    113  CB        25.8960   69.1200   12.1550 C.3   253  THR253      0.1808
    114  OG1       26.8000   70.0620   11.5630 O.3   253  THR253     -0.2208
    115  CG2       26.5680   67.7580   12.2780 C.3   253  THR253      0.0379
    116  N         23.0230   70.7370   12.0420 N.am  254  GLY254     -0.1939
    117  CA        22.4630   72.0870   12.1430 C.3   254  GLY254      0.2014
    118  C         21.4500   72.4650   11.0740 C.2   254  GLY254      0.2639
    119  O         20.9780   73.6060   11.0530 O.2   254  GLY254     -0.2714
    120  N         21.1080   71.5160   10.2000 N.am  255  VAL255     -0.1963
    121  CA        20.2430   71.7960    9.0440 C.3   255  VAL255      0.1727
    122  C         18.7810   72.0260    9.4540 C.2   255  VAL255      0.2617
    123  O         18.1320   72.9340    8.9360 O.2   255  VAL255     -0.2715
    124  CB        20.3960   70.7160    7.9310 C.3   255  VAL255      0.0290
    125  CG1       19.3860   70.9210    6.8080 C.3   255  VAL255      0.0023
    126  CG2       21.7980   70.7710    7.3550 C.3   255  VAL255      0.0023
    127  N         18.2900   71.2180   10.3950 N.am  256  GLY256     -0.1940
    128  CA        16.9990   71.4420   11.0520 C.3   256  GLY256      0.2014
    129  C         16.8900   72.7790   11.7780 C.2   256  GLY256      0.2638
    130  O         15.8580   73.4520   11.6950 O.2   256  GLY256     -0.2714
    131  N         17.9520   73.1710   12.4860 N.am  257  ASP257     -0.1971
    132  CA        17.9970   74.4530   13.2010 C.3   257  ASP257      0.1709
    133  C         17.8800   75.6170   12.2320 C.2   257  ASP257      0.2293
    134  O         17.1620   76.5850   12.4880 O.2   257  ASP257     -0.2864
    135  CB        19.3190   74.6130   13.9760 C.3   257  ASP257      0.1436
    136  CG        19.4510   73.6330   15.1360 C.2   257  ASP257      0.3671
    137  OD1       18.4180   73.0870   15.5930 O.co2 257  ASP257     -0.2456
    138  OD2       20.5970   73.4190   15.5990 O.co2 257  ASP257     -0.2456
    139  N         16.6750   75.6010    9.0530 N.3   259  PHE259     -0.1227
    140  CA        15.3270   75.6470    8.4720 C.3   259  PHE259      0.1736
    141  C         14.3540   76.4310    9.3630 C.2   259  PHE259      0.2595
    142  O         13.6750   77.3360    8.8830 O.2   259  PHE259     -0.2718
    143  CB        14.7300   74.2720    8.1300 C.3   259  PHE259      0.0547
    144  CG        13.3120   74.3770    7.5960 C.ar  259  PHE259     -0.0202
    145  CD1       13.0790   74.5990    6.2370 C.ar  259  PHE259     -0.0042
    146  CD2       12.2190   74.3570    8.4660 C.ar  259  PHE259     -0.0042
    147  CE1       11.7820   74.7520    5.7570 C.ar  259  PHE259     -0.0003
    148  CE2       10.9130   74.5230    7.9900 C.ar  259  PHE259     -0.0003
    149  CZ        10.6990   74.7150    6.6390 C.ar  259  PHE259     -0.0000
    150  N         14.2850   76.0640   10.6420 N.am  260  ARG260     -0.1980
    151  CA        13.4290   76.7430   11.6160 C.3   260  ARG260      0.1597
    152  C         13.6870   78.2390   11.6790 C.2   260  ARG260      0.2287
    153  O         12.7460   79.0370   11.6450 O.2   260  ARG260     -0.2864
    154  CB        13.6080   76.1360   13.0090 C.3   260  ARG260      0.0334
    155  CG        12.9610   74.7930   13.1800 C.3   260  ARG260      0.0492
    156  CD        13.7590   73.9450   14.1530 C.3   260  ARG260      0.2205
    157  NE        13.1540   72.6400   14.4150 N.pl3 260  ARG260     -0.0865
    158  CZ        13.1920   71.5910   13.5940 C.cat 260  ARG260      0.5346
    159  NH1       13.7820   71.6710   12.4090 N.pl3 260  ARG260      0.1354
    160  NH2       12.6110   70.4530   13.9600 N.pl3 260  ARG260      0.1354
    161  N         14.0510   76.7800    3.5320 N.3   281  SER281     -0.1217
    162  CA        14.7270   75.8220    2.6410 C.3   281  SER281      0.1889
    163  C         16.0820   76.3120    2.1230 C.2   281  SER281      0.2288
    164  O         17.0270   75.5190    2.0030 O.2   281  SER281     -0.2866
    165  CB        13.8210   75.4340    1.4660 C.3   281  SER281      0.2089
    166  OG        12.6310   74.8350    1.9460 O.3   281  SER281     -0.2183
    167  N         18.5400   76.3090    5.1450 N.3   284  ALA284     -0.1231
    168  CA        18.8490   74.8910    5.3590 C.3   284  ALA284      0.1694
    169  C         19.9250   74.3340    4.4130 C.2   284  ALA284      0.2591
    170  O         20.8500   73.6430    4.8590 O.2   284  ALA284     -0.2718
    171  CB        17.5970   74.0580    5.2750 C.3   284  ALA284      0.0304
    172  N         19.8120   74.6380    3.1210 N.am  285  VAL285     -0.1980
    173  CA        20.7840   74.1420    2.1480 C.3   285  VAL285      0.1595
    174  C         22.1680   74.7900    2.3520 C.2   285  VAL285      0.2287
    175  O         23.2080   74.1240    2.2050 O.2   285  VAL285     -0.2864
    176  CB        20.2630   74.2310    0.6700 C.3   285  VAL285      0.0276
    177  CG1       20.4430   75.6350    0.0680 C.3   285  VAL285      0.0022
    178  CG2       20.9840   73.2160   -0.1960 C.3   285  VAL285      0.0022
    179  N         23.6710   72.8470    5.1510 N.3   288  LEU288     -0.1245
    180  CA        24.0310   71.5410    4.5790 C.3   288  LEU288      0.1561
    181  C         25.3510   71.5660    3.8060 C.2   288  LEU288      0.2260
    182  O         26.0790   70.5680    3.7910 O.2   288  LEU288     -0.2867
    183  CB        22.9120   71.0170    3.6590 C.3   288  LEU288      0.0270
    184  CG        23.1010   69.6280    3.0280 C.3   288  LEU288      0.0019
    185  CD1       23.3530   68.5450    4.0820 C.3   288  LEU288      0.0001
    186  CD2       21.9200   69.2520    2.1540 C.3   288  LEU288      0.0001
@<TRIPOS>BOND
     1    87    86    2
     2    86    85    1
     3    84    85    1
     4    73    72    2
     5    85    88    1
     6    82    81    1
     7    79    78    1
     8    79    80    2
     9    91    90   ar
    10    78    81    1
    11    78    77    1
    12    72    77   am
    13    72    71    1
    14    90    89    1
    15    90    92   ar
    16    81    83    1
    17    76    74    1
    18    88    89    1
    19    70    71    1
    20   100    99    2
    21    71    74    1
    22    55    54    2
    23    74    75    1
    24    99    98    1
    25    99   101   am
    26    93    94    1
    27   178   176    1
    28    98    97    1
    29   177   176    1
    30    54    53    1
    31    56    53    1
    32    56    57    1
    33    97    94    1
    34   176   173    1
    35    53    52    1
    36    94    95    1
    37    57    58    1
    38    59    60    1
    39   165   166    1
    40   165   162    1
    41    60    61    1
    42   164   163    2
    43   163   162    1
    44   173   174    1
    45   173   172    1
    46   186   184    1
    47    95    96    2
    48   175   174    2
    49    52    58    1
    50    52    50   am
    51   162   161    1
    52    51    50    2
    53    66    65    2
    54   184   183    1
    55   184   185    1
    56    61    63   am
    57    61    62    2
    58    63    64    1
    59   172   169   am
    60    50    49    1
    61    46    45    1
    62   183   180    1
    63    43    42    2
    64   182   181    2
    65   181   180    1
    66    68    67    1
    67    65    64    1
    68    64    67    1
    69    44    45    1
    70    44    41    1
    71   169   170    2
    72   169   168    1
    73   180   179    1
    74    49    48    1
    75    45    47    1
    76    42    48   am
    77    42    41    1
    78    67    69    1
    79   167   168    1
    80   171   168    1
    81    41    40    1
    82   147   145   ar
    83   147   149   ar
    84    40    35   am
    85   145   144   ar
    86   149   148   ar
    87   125   124    1
    88    35    34    1
    89    35    36    2
    90   126   124    1
    91   102   108    1
    92   102   103    1
    93   108   107    1
    94   106   103    1
    95   106   107    1
    96   144   143    1
    97   144   146   ar
    98   103   104    1
    99    34    37    1
   100    34    33    1
   101   124   121    1
   102   148   146   ar
   103   143   140    1
   104    37    39    1
   105    37    38    1
   106   140   139    1
   107   140   141    1
   108   142   141    2
   109   123   122    2
   110   121   122    1
   111   121   120    1
   112   104   105    2
   113   104   109   am
   114   141   150   am
   115   122   127   am
   116   109   110    1
   117   120   118   am
   118   112   111    2
   119   127   128    1
   120   150   151    1
   121   128   129    1
   122   119   118    2
   123   118   117    1
   124    20    17    1
   125    20    21    1
   126   111   110    1
   127   111   116   am
   128    18    17    1
   129    18    19    2
   130   110   113    1
   131    17    16    1
   132   114   113    1
   133   151   152    1
   134   151   154    1
   135   153   152    2
   136   130   129    2
   137   129   131   am
   138    21    23   am
   139    21    22    2
   140   116   117    1
   141   113   115    1
   142   133   134    2
   143   133   132    1
   144   159   158    1
   145   131   132    1
   146   154   155    1
   147   155   156    1
   148   132   135    1
   149   158   160    1
   150   158   157    2
   151    24    25    1
   152   135   136    1
   153   156   157    1
   154    31    30   ar
   155   136   137   ar
   156   136   138   ar
   157    25    26    1
   158    25    28    1
   159    26    27    2
   160    28    29    1
   161    30    29    1
   162    30    32   ar
   163     6     5    1
   164    15    13   am
   165     5     2    1
   166     2     1    1
   167     2     3    1
   168    13    14    2
   169    13    12    1
   170     3     4    2
   171     3     7   am
   172    12    11    1
   173     7     8    1
   174     8    11    1
   175     8     9    1
   176     9    10    2
