@<TRIPOS>MOLECULE
tmp/2pkqF00.pdb
 209 203 0 0 0
SMALL
GASTEIGER

@<TRIPOS>ATOM
      1  N         10.0110   52.8680   15.3190 N.3     7  ASN7       -0.1225
      2  CA         8.8140   53.3090   14.6330 C.3     7  ASN7        0.1785
      3  C          7.6400   53.3070   15.6070 C.2     7  ASN7        0.2598
      4  O          7.0970   52.2520   15.9490 O.2     7  ASN7       -0.2718
      5  CB         8.5190   52.4100   13.4380 C.3     7  ASN7        0.1169
      6  CG         7.7200   53.1190   12.3690 C.2     7  ASN7        0.2627
      7  OD1        8.1920   54.0620   11.7450 O.2     7  ASN7       -0.2716
      8  ND2        6.4970   52.6740   12.1580 N.am    7  ASN7       -0.0877
      9  N          7.2640   54.5050   16.0530 N.am    8  GLY8       -0.1942
     10  CA         6.1730   54.6570   16.9960 C.3     8  GLY8        0.2014
     11  C          6.6850   55.2150   18.3080 C.2     8  GLY8        0.2639
     12  O          7.0540   54.4590   19.2050 O.2     8  GLY8       -0.2714
     13  N          6.7020   56.5370   18.4350 N.am    9  PHE9       -0.1959
     14  CA         7.2080   57.1530   19.6550 C.3     9  PHE9        0.1771
     15  C          6.1320   57.4100   20.7040 C.2     9  PHE9        0.2620
     16  O          5.7980   58.5580   21.0210 O.2     9  PHE9       -0.2715
     17  CB         7.9390   58.4570   19.3220 C.3     9  PHE9        0.0574
     18  CG         9.1050   58.7440   20.2270 C.ar    9  PHE9       -0.0200
     19  CD1       10.0110   57.7400   20.5430 C.ar    9  PHE9       -0.0042
     20  CD2        9.3040   60.0100   20.7470 C.ar    9  PHE9       -0.0042
     21  CE1       11.0900   57.9930   21.3580 C.ar    9  PHE9       -0.0003
     22  CE2       10.3840   60.2700   21.5650 C.ar    9  PHE9       -0.0003
     23  CZ        11.2790   59.2600   21.8720 C.ar    9  PHE9       -0.0000
     24  N          5.6000   56.3220   21.2460 N.am   10  GLY10      -0.1940
     25  CA         4.5790   56.4270   22.2640 C.3    10  GLY10       0.2014
     26  C          4.8800   55.4290   23.3610 C.2    10  GLY10       0.2639
     27  O          5.4270   54.3520   23.0890 O.2    10  GLY10      -0.2714
     28  N          4.4980   55.7810   24.5900 N.am   11  ARG11      -0.1963
     29  CA         4.7280   54.9490   25.7700 C.3    11  ARG11       0.1729
     30  C          5.8070   53.8800   25.5590 C.2    11  ARG11       0.2616
     31  O          6.9660   54.0770   25.9200 O.2    11  ARG11      -0.2715
     32  CB         3.4340   54.2620   26.2410 C.3    11  ARG11       0.0348
     33  CG         2.2540   55.1720   26.5510 C.3    11  ARG11       0.0492
     34  CD         2.6550   56.3870   27.3410 C.3    11  ARG11       0.2205
     35  NE         3.2510   56.0590   28.6250 N.pl3  11  ARG11      -0.0865
     36  CZ         4.1040   56.8580   29.2490 C.cat  11  ARG11       0.5346
     37  NH1        4.4470   58.0150   28.6980 N.pl3  11  ARG11       0.1354
     38  NH2        4.6210   56.5030   30.4150 N.pl3  11  ARG11       0.1354
     39  N          5.4260   52.7600   24.9620 N.am   12  ILE12      -0.1977
     40  CA         6.3380   51.6650   24.7430 C.3    12  ILE12       0.1596
     41  C          7.5740   52.0210   23.9540 C.2    12  ILE12       0.2287
     42  O          8.6510   51.5320   24.2470 O.2    12  ILE12      -0.2864
     43  CB         5.6460   50.5630   24.0420 C.3    12  ILE12       0.0276
     44  CG1        6.3240   49.2620   24.3980 C.3    12  ILE12       0.0022
     45  CG2        5.6480   50.8290   22.5690 C.3    12  ILE12       0.0022
     46  CD1        6.1780   48.9490   25.8620 C.3    12  ILE12       0.0001
     47  N          8.8190   55.1420   23.6080 N.3    14  ARG14      -0.1245
     48  CA         9.5560   56.1100   24.4020 C.3    14  ARG14       0.1563
     49  C         10.1350   55.3840   25.6210 C.2    14  ARG14       0.2260
     50  O         11.2720   55.6400   26.0140 O.2    14  ARG14      -0.2867
     51  CB         8.6310   57.2490   24.8400 C.3    14  ARG14       0.0307
     52  CG         7.7110   57.7420   23.7270 C.3    14  ARG14       0.0489
     53  CD         7.4320   59.2220   23.8590 C.3    14  ARG14       0.2205
     54  NE         6.8380   59.6020   25.1450 N.pl3  14  ARG14      -0.0865
     55  CZ         5.5320   59.6000   25.4110 C.cat  14  ARG14       0.5346
     56  NH1        4.6520   59.2300   24.4820 N.pl3  14  ARG14       0.1354
     57  NH2        5.1060   60.0000   26.6040 N.pl3  14  ARG14       0.1354
     58  N         10.2380   57.6940   14.5360 N.3    34  ASN34      -0.1225
     59  CA         9.1730   58.0610   13.6130 C.3    34  ASN34       0.1785
     60  C          7.9290   58.4740   14.3850 C.2    34  ASN34       0.2597
     61  O          6.9760   57.7040   14.5100 O.2    34  ASN34      -0.2718
     62  CB         8.8520   56.8950   12.6730 C.3    34  ASN34       0.1169
     63  CG         7.8230   57.2610   11.6070 C.2    34  ASN34       0.2627
     64  OD1        7.8850   58.3380   11.0130 O.2    34  ASN34      -0.2716
     65  ND2        6.8850   56.3520   11.3470 N.am   34  ASN34      -0.0877
     66  N          7.9460   59.6920   14.9160 N.am   35  ASP35      -0.1960
     67  CA         6.8080   60.2130   15.6680 C.3    35  ASP35       0.1840
     68  C          6.1090   61.2610   14.8250 C.2    35  ASP35       0.2622
     69  O          6.6670   62.3240   14.5380 O.2    35  ASP35      -0.2715
     70  CB         7.2700   60.8300   16.9930 C.3    35  ASP35       0.1450
     71  CG         6.1150   61.4080   17.8170 C.2    35  ASP35       0.3671
     72  OD1        5.5900   62.4850   17.4450 O.co2  35  ASP35      -0.2456
     73  OD2        5.7350   60.7860   18.8390 O.co2  35  ASP35      -0.2456
     74  N          4.8850   60.9450   14.4220 N.am   36  SER36      -0.1950
     75  CA         4.0960   61.8530   13.6040 C.3    36  SER36       0.1924
     76  C          3.7860   63.1400   14.3740 C.2    36  SER36       0.2314
     77  O          2.6240   63.4170   14.6730 O.2    36  SER36      -0.2863
     78  CB         2.7920   61.1630   13.1730 C.3    36  SER36       0.2116
     79  OG         3.0600   59.9420   12.4900 O.3    36  SER36      -0.2180
     80  N          6.0460   59.6480    8.9170 N.3    79  ASN79      -0.1225
     81  CA         5.1930   59.2430    7.8110 C.3    79  ASN79       0.1785
     82  C          4.5130   57.9430    8.1730 C.2    79  ASN79       0.2597
     83  O          5.1760   56.9800    8.5700 O.2    79  ASN79      -0.2718
     84  CB         5.9870   59.0460    6.5180 C.3    79  ASN79       0.1169
     85  CG         5.1350   59.3070    5.2740 C.2    79  ASN79       0.2627
     86  OD1        3.9980   58.8240    5.1670 O.2    79  ASN79      -0.2716
     87  ND2        5.6800   60.0790    4.3330 N.am   79  ASN79      -0.0877
     88  N          3.1910   57.9180    8.0320 N.am   80  ARG80      -0.1979
     89  CA         2.4150   56.7310    8.3560 C.3    80  ARG80       0.1597
     90  C          2.7730   55.5270    7.4740 C.2    80  ARG80       0.2287
     91  O          2.5950   54.3770    7.8880 O.2    80  ARG80      -0.2864
     92  CB         0.9130   57.0210    8.2260 C.3    80  ARG80       0.0334
     93  CG         0.3720   58.1440    9.1110 C.3    80  ARG80       0.0492
     94  CD        -1.1710   58.1450    9.1090 C.3    80  ARG80       0.2205
     95  NE        -1.7280   57.0690    9.9360 N.pl3  80  ARG80      -0.0865
     96  CZ        -2.9860   56.6310    9.8770 C.cat  80  ARG80       0.5346
     97  NH1       -3.8520   57.1680    9.0200 N.pl3  80  ARG80       0.1354
     98  NH2       -3.3800   55.6540   10.6880 N.pl3  80  ARG80       0.1354
     99  N          5.4290   53.2620    6.1420 N.3    82  PRO82      -0.2116
    100  CA         6.8040   52.7670    6.2370 C.3    82  PRO82       0.1372
    101  C          7.5850   52.7850    4.9210 C.2    82  PRO82       0.2244
    102  O          8.7780   53.0890    4.8950 O.2    82  PRO82      -0.2868
    103  CB         6.6110   51.3560    6.7790 C.3    82  PRO82       0.0268
    104  CG         5.4540   51.5260    7.6950 C.3    82  PRO82       0.0207
    105  CD         4.5090   52.3670    6.8710 C.3    82  PRO82       0.0892
    106  N          6.6440   49.7680   17.2630 N.3    98  GLY98      -0.1210
    107  CA         5.7500   49.9400   18.4000 C.3    98  GLY98       0.1956
    108  C          4.5760   50.8710   18.1450 C.2    98  GLY98       0.2613
    109  O          4.4580   51.9210   18.7710 O.2    98  GLY98      -0.2717
    110  N          3.7010   50.4800   17.2240 N.am   99  THR99      -0.1938
    111  CA         2.5330   51.2810   16.8800 C.3    99  THR99       0.2028
    112  C          1.2740   50.4940   17.1450 C.2    99  THR99       0.2643
    113  O          0.2280   51.0750   17.4240 O.2    99  THR99      -0.2714
    114  CB         2.5100   51.6330   15.4090 C.3    99  THR99       0.1808
    115  OG1        2.2580   50.4430   14.6470 O.3    99  THR99      -0.2208
    116  CG2        3.8390   52.2330   14.9910 C.3    99  THR99       0.0379
    117  N          1.3780   49.1700   17.0310 N.am  100  GLY100     -0.1939
    118  CA         0.2270   48.3100   17.2670 C.3   100  GLY100      0.2014
    119  C         -0.6650   48.1770   16.0420 C.2   100  GLY100      0.2639
    120  O         -1.8070   47.6850   16.1120 O.2   100  GLY100     -0.2714
    121  N         -0.1340   48.6220   14.9080 N.am  101  VAL101     -0.1963
    122  CA        -0.8660   48.5600   13.6560 C.3   101  VAL101      0.1727
    123  C         -0.1970   47.5230   12.7750 C.2   101  VAL101      0.2616
    124  O         -0.8320   46.5740   12.3180 O.2   101  VAL101     -0.2715
    125  CB        -0.8390   49.9130   12.9320 C.3   101  VAL101      0.0290
    126  CG1       -2.0830   50.0640   12.0620 C.3   101  VAL101      0.0023
    127  CG2       -0.7450   51.0360   13.9530 C.3   101  VAL101      0.0023
    128  N          1.0950   47.7030   12.5480 N.am  102  PHE102     -0.1974
    129  CA         1.8380   46.7690   11.7230 C.3   102  PHE102      0.1639
    130  C          2.2640   45.5890   12.5660 C.2   102  PHE102      0.2290
    131  O          3.3620   45.5740   13.1090 O.2   102  PHE102     -0.2864
    132  CB         3.0500   47.4660   11.1250 C.3   102  PHE102      0.0560
    133  CG         2.7060   48.7380   10.4040 C.ar  102  PHE102     -0.0200
    134  CD1        1.6000   48.7900    9.5550 C.ar  102  PHE102     -0.0042
    135  CD2        3.4760   49.8860   10.5690 C.ar  102  PHE102     -0.0042
    136  CE1        1.2630   49.9670    8.8800 C.ar  102  PHE102     -0.0003
    137  CE2        3.1440   51.0720    9.8940 C.ar  102  PHE102     -0.0003
    138  CZ         2.0360   51.1090    9.0500 C.ar  102  PHE102     -0.0000
    139  N          6.6510   45.1330   18.9990 N.3   122  THR122     -0.1203
    140  CA         6.4330   45.2650   20.4390 C.3   122  THR122      0.1994
    141  C          4.9830   44.9080   20.7470 C.2   122  THR122      0.2618
    142  O          4.2540   45.7170   21.3220 O.2   122  THR122     -0.2717
    143  CB         6.6830   46.7060   20.9300 C.3   122  THR122      0.1784
    144  OG1        5.8990   47.6210   20.1510 O.3   122  THR122     -0.2211
    145  CG2        8.1500   47.0640   20.8190 C.3   122  THR122      0.0376
    146  N          4.5750   43.7020   20.3510 N.am  123  ALA123     -0.1966
    147  CA         3.2080   43.2110   20.5580 C.3   123  ALA123      0.1713
    148  C          3.0510   41.8460   19.8920 C.2   123  ALA123      0.2458
    149  O          3.9470   41.3970   19.1820 O.2   123  ALA123     -0.2730
    150  CB         2.2040   44.1930   19.9630 C.3   123  ALA123      0.0333
    151  N          1.9130   41.1620   20.1170 N.am  124  PRO124     -0.2727
    152  CA         1.7170   39.8450   19.4960 C.3   124  PRO124      0.1402
    153  C          1.4860   39.9810   17.9940 C.2   124  PRO124      0.2269
    154  O          0.8320   40.9280   17.5550 O.2   124  PRO124     -0.2865
    155  CB         0.4790   39.3000   20.2130 C.3   124  PRO124      0.0296
    156  CG         0.5020   40.0060   21.5370 C.3   124  PRO124      0.0237
    157  CD         0.8780   41.4080   21.1350 C.3   124  PRO124      0.0939
    158  N          3.3840   39.7130   24.5190 N.3   154  SER154     -0.1202
    159  CA         2.5640   40.7000   25.2170 C.3   154  SER154      0.2020
    160  C          3.1580   41.0770   26.5730 C.2   154  SER154      0.2619
    161  O          4.0110   40.3680   27.1000 O.2   154  SER154     -0.2717
    162  CB         1.1520   40.1330   25.4140 C.3   154  SER154      0.2103
    163  OG         0.3450   40.9660   26.2330 O.3   154  SER154     -0.2182
    164  N          2.7090   42.1990   27.1300 N.am  155  CYS155     -0.1969
    165  CA         3.1870   42.6350   28.4420 C.3   155  CYS155      0.1712
    166  C          2.7820   41.5870   29.4620 C.2   155  CYS155      0.2296
    167  O          3.5670   41.2010   30.3300 O.2   155  CYS155     -0.2864
    168  CB         2.5900   44.0010   28.8470 C.3   155  CYS155      0.0983
    169  SG         0.8150   44.3340   28.5110 S.3   155  CYS155     -0.0798
    170  N         -5.0890   51.3520   29.4190 N.3   185  THR185     -0.1203
    171  CA        -4.1600   51.6750   28.3230 C.3   185  THR185      0.1994
    172  C         -4.7120   52.5140   27.1780 C.2   185  THR185      0.2618
    173  O         -5.9150   52.5730   26.9470 O.2   185  THR185     -0.2717
    174  CB        -3.5650   50.4140   27.6880 C.3   185  THR185      0.1784
    175  OG1       -4.5930   49.4260   27.5310 O.3   185  THR185     -0.2211
    176  CG2       -2.4340   49.8750   28.5490 C.3   185  THR185      0.0376
    177  N         -3.7940   53.1360   26.4480 N.am  186  GLY186     -0.1956
    178  CA        -4.1520   53.9940   25.3330 C.3   186  GLY186      0.1869
    179  C         -5.3030   53.5560   24.4470 C.2   186  GLY186      0.2309
    180  O         -6.0180   54.4040   23.9080 O.2   186  GLY186     -0.2863
    181  N          3.7970   47.0820   33.2190 N.3   319  ASN319     -0.1225
    182  CA         3.5300   46.8510   31.8090 C.3   319  ASN319      0.1785
    183  C          4.2870   47.7560   30.8640 C.2   319  ASN319      0.2597
    184  O          4.5890   47.3530   29.7450 O.2   319  ASN319     -0.2718
    185  CB         2.0260   46.9260   31.5090 C.3   319  ASN319      0.1169
    186  CG         1.2860   47.8290   32.4650 C.2   319  ASN319      0.2627
    187  OD1        1.0980   47.4920   33.6380 O.2   319  ASN319     -0.2716
    188  ND2        0.8620   48.9890   31.9750 N.am  319  ASN319     -0.0877
    189  N          4.6060   48.9700   31.2870 N.am  320  GLU320     -0.1979
    190  CA         5.3230   49.8590   30.3890 C.3   320  GLU320      0.1602
    191  C          6.8020   49.5560   30.4430 C.2   320  GLU320      0.2287
    192  O          7.3760   49.0170   29.5020 O.2   320  GLU320     -0.2864
    193  CB         5.0760   51.3300   30.7560 C.3   320  GLU320      0.0415
    194  CG         3.6070   51.7010   30.8730 C.3   320  GLU320      0.1163
    195  CD         3.2660   52.9860   30.1670 C.2   320  GLU320      0.3649
    196  OE1        4.0100   53.9680   30.3430 O.co2 320  GLU320     -0.2457
    197  OE2        2.2440   53.0120   29.4490 O.co2 320  GLU320     -0.2457
    198  N          8.2080   45.4420   30.1210 N.3   323  TYR323     -0.1241
    199  CA         8.1430   45.0010   28.7340 C.3   323  TYR323      0.1605
    200  C          9.2080   45.7090   27.9130 C.2   323  TYR323      0.2264
    201  O         10.0010   45.0750   27.2280 O.2   323  TYR323     -0.2867
    202  CB         6.7630   45.3040   28.1620 C.3   323  TYR323      0.0534
    203  CG         6.5770   44.7720   26.7780 C.ar  323  TYR323     -0.0201
    204  CD1        6.3140   43.4250   26.5570 C.ar  323  TYR323     -0.0009
    205  CD2        6.6930   45.6090   25.6790 C.ar  323  TYR323     -0.0009
    206  CE1        6.1700   42.9220   25.2580 C.ar  323  TYR323      0.0417
    207  CE2        6.5480   45.1230   24.3760 C.ar  323  TYR323      0.0417
    208  CZ         6.2890   43.7810   24.1710 C.ar  323  TYR323      0.1957
    209  OH         6.1570   43.3090   22.8810 O.3   323  TYR323     -0.2866
@<TRIPOS>BOND
     1    87    85   am
     2   102   101    2
     3   101   100    1
     4    86    85    2
     5    85    84    1
     6    99   100    1
     7    99   105    1
     8   100   103    1
     9    84    81    1
    10   103   104    1
    11   105   104    1
    12    90    91    2
    13    90    89    1
    14    81    82    1
    15    81    80    1
    16    88    82   am
    17    88    89    1
    18    82    83    2
    19    92    89    1
    20    92    93    1
    21   136   138   ar
    22   136   134   ar
    23    97    96    1
    24   138   137   ar
    25    94    93    1
    26    94    95    1
    27   134   133   ar
    28    96    95    2
    29    96    98    1
    30   137   135   ar
    31   133   135   ar
    32   133   132    1
    33    64    63    2
    34   132   129    1
    35    65    63   am
    36    63    62    1
    37   129   128    1
    38   129   130    1
    39     7     6    2
    40   126   125    1
    41     8     6   am
    42   124   123    2
    43     6     5    1
    44    79    78    1
    45   128   123   am
    46   130   131    2
    47    62    59    1
    48   123   122    1
    49   125   122    1
    50   125   127    1
    51    78    75    1
    52     5     2    1
    53    75    76    1
    54    75    74    1
    55    59    60    1
    56    59    58    1
    57   122   121    1
    58    76    77    2
    59    60    61    2
    60    60    66   am
    61    74    68   am
    62    69    68    2
    63     2     1    1
    64     2     3    1
    65   115   114    1
    66    68    67    1
    67   121   119   am
    68    66    67    1
    69   116   114    1
    70   114   111    1
    71     3     4    2
    72     3     9   am
    73    67    70    1
    74   119   120    2
    75   119   118    1
    76     9    10    1
    77   111   112    1
    78   111   110    1
    79    70    71    1
    80    10    11    1
    81   117   112   am
    82   117   118    1
    83   112   113    2
    84   110   108   am
    85   106   107    1
    86    72    71   ar
    87   154   153    2
    88    71    73   ar
    89   153   152    1
    90   108   107    1
    91   108   109    2
    92    11    13   am
    93    11    12    2
    94    13    14    1
    95   139   140    1
    96   149   148    2
    97    17    14    1
    98    17    18    1
    99   152   151    1
   100   152   155    1
   101    14    15    1
   102   148   151   am
   103   148   147    1
   104   150   147    1
   105   151   157    1
   106   144   143    1
   107   155   156    1
   108    18    19   ar
   109    18    20   ar
   110   146   147    1
   111   146   141   am
   112   140   141    1
   113   140   143    1
   114    19    21   ar
   115    15    16    2
   116    15    24   am
   117    20    22   ar
   118   141   142    2
   119   145   143    1
   120   157   156    1
   121    24    25    1
   122    21    23   ar
   123    22    23   ar
   124    25    26    1
   125    45    43    1
   126   209   208    1
   127    27    26    2
   128    26    28   am
   129    47    48    1
   130    52    53    1
   131    52    51    1
   132    53    54    1
   133   180   179    2
   134    41    42    2
   135    41    40    1
   136    43    44    1
   137    43    40    1
   138   208   207   ar
   139   208   206   ar
   140   207   205   ar
   141    44    46    1
   142    48    51    1
   143    48    49    1
   144   179   178    1
   145    56    55    1
   146   158   159    1
   147    28    29    1
   148    40    39    1
   149    39    30   am
   150    54    55    2
   151   159   162    1
   152   159   160    1
   153   206   204   ar
   154   178   177    1
   155    55    57    1
   156   162   163    1
   157    30    29    1
   158    30    31    2
   159    49    50    2
   160   205   203   ar
   161    29    32    1
   162    32    33    1
   163   177   172   am
   164    33    34    1
   165   204   203   ar
   166   160   161    2
   167   160   164   am
   168   203   202    1
   169   173   172    2
   170   164   165    1
   171   172   171    1
   172   201   200    2
   173    34    35    1
   174   175   174    1
   175   174   171    1
   176   174   176    1
   177   200   199    1
   178   202   199    1
   179   171   170    1
   180   165   168    1
   181   165   166    1
   182   169   168    1
   183    35    36    2
   184    37    36    1
   185   199   198    1
   186    36    38    1
   187   197   195   ar
   188   166   167    2
   189   192   191    2
   190   184   183    2
   191   195   196   ar
   192   195   194    1
   193   190   191    1
   194   190   193    1
   195   190   189    1
   196   193   194    1
   197   183   189   am
   198   183   182    1
   199   185   182    1
   200   185   186    1
   201   182   181    1
   202   188   186   am
   203   186   187    2
