@<TRIPOS>MOLECULE
tmp/2pksC00.pdb
 135 136 0 0 0
SMALL
GASTEIGER

@<TRIPOS>ATOM
      1  N         20.4230  -15.7350   32.2600 N.3    25  ILE25      -0.1245
      2  CA        21.3250  -14.7780   31.6100 C.3    25  ILE25       0.1561
      3  C         21.7230  -13.5990   32.5490 C.2    25  ILE25       0.2260
      4  O         20.8880  -13.0250   33.2820 O.2    25  ILE25      -0.2867
      5  CB        20.7880  -14.3340   30.2490 C.3    25  ILE25       0.0252
      6  CG1       20.9040  -15.5000   29.2550 C.3    25  ILE25       0.0019
      7  CG2       21.5470  -13.1190   29.7310 C.3    25  ILE25       0.0019
      8  CD1       19.6610  -15.6630   28.4370 C.3    25  ILE25       0.0001
      9  N          4.2870   -8.8570   24.9090 N.3    45  ASP45      -0.1225
     10  CA         5.7280   -8.8470   24.9050 C.3    45  ASP45       0.1805
     11  C          6.1790   -8.4120   23.5270 C.2    45  ASP45       0.2598
     12  O          5.3940   -8.4120   22.6000 O.2    45  ASP45      -0.2718
     13  CB         6.2360  -10.2610   25.2750 C.3    45  ASP45       0.1424
     14  CG         7.7430  -10.3500   25.5100 C.2    45  ASP45       0.3668
     15  OD1        8.2290  -11.4810   25.5150 O.co2  45  ASP45      -0.2456
     16  OD2        8.4550   -9.3580   25.7060 O.co2  45  ASP45      -0.2456
     17  N          7.4390   -8.0120   23.4190 N.am   46  ALA46      -0.1966
     18  CA         8.1450   -8.0090   22.1570 C.3    46  ALA46       0.1728
     19  C          8.5260   -9.4510   21.7570 C.2    46  ALA46       0.2616
     20  O          8.3940  -10.3920   22.5500 O.2    46  ALA46      -0.2715
     21  CB         9.3810   -7.1370   22.2650 C.3    46  ALA46       0.0334
     22  N          9.0290   -9.6090   20.5380 N.am   47  CYS47      -0.1954
     23  CA         9.3320  -10.9020   19.9510 C.3    47  CYS47       0.1843
     24  C         10.2950  -10.6950   18.7430 C.2    47  CYS47       0.2625
     25  O         10.7090   -9.5410   18.4220 O.2    47  CYS47      -0.2714
     26  CB         8.0210  -11.5730   19.5090 C.3    47  CYS47       0.0997
     27  SG         8.0050  -13.4080   19.3990 S.3    47  CYS47      -0.0797
     28  N         10.6390  -11.8070   18.0940 N.am   48  GLU48      -0.1963
     29  CA        11.5460  -11.8620   16.9630 C.3    48  GLU48       0.1733
     30  C         11.0200  -10.9040   15.9110 C.2    48  GLU48       0.2616
     31  O          9.8010  -10.8590   15.7110 O.2    48  GLU48      -0.2715
     32  CB        11.5980  -13.3140   16.4260 C.3    48  GLU48       0.0429
     33  CG        11.8670  -14.4220   17.5470 C.3    48  GLU48       0.1163
     34  CD        11.3350  -15.8300   17.1890 C.2    48  GLU48       0.3649
     35  OE1       11.5570  -16.2960   16.0320 O.co2  48  GLU48      -0.2457
     36  OE2       10.7020  -16.4780   18.0730 O.co2  48  GLU48      -0.2457
     37  N         11.8950  -10.1490   15.2450 N.am   49  GLY49      -0.1955
     38  CA        11.4660   -9.0740   14.3620 C.3    49  GLY49       0.1869
     39  C         11.2900   -7.6790   15.0010 C.2    49  GLY49       0.2309
     40  O         11.4900   -6.6840   14.3060 O.2    49  GLY49      -0.2863
     41  N         13.0860   -6.4920   17.6430 N.3    51  SER51      -0.1217
     42  CA        14.4600   -6.0530   17.9860 C.3    51  SER51       0.1889
     43  C         14.8140   -4.7120   17.3890 C.2    51  SER51       0.2288
     44  O         14.4180   -4.4540   16.2950 O.2    51  SER51      -0.2866
     45  CB        15.4590   -7.0740   17.4300 C.3    51  SER51       0.2089
     46  OG        15.4500   -8.2550   18.2320 O.3    51  SER51      -0.2183
     47  N         14.2760   -2.2720   22.1240 N.3    71  VAL71      -0.1231
     48  CA        13.8250   -3.6760   22.1510 C.3    71  VAL71       0.1692
     49  C         15.0320   -4.5680   21.9000 C.2    71  VAL71       0.2593
     50  O         15.6830   -4.4470   20.8530 O.2    71  VAL71      -0.2718
     51  CB        12.7380   -3.9800   21.0570 C.3    71  VAL71       0.0266
     52  CG1       12.2550   -5.4740   21.1650 C.3    71  VAL71       0.0020
     53  CG2       11.5200   -3.0010   21.1660 C.3    71  VAL71       0.0020
     54  N         15.3540   -5.4450   22.8480 N.am   72  SER72      -0.1938
     55  CA        16.6020   -6.1800   22.7500 C.3    72  SER72       0.2055
     56  C         16.4120   -7.6620   22.7480 C.2    72  SER72       0.2643
     57  O         16.5570   -8.2670   21.7010 O.2    72  SER72      -0.2714
     58  CB        17.5670   -5.7860   23.8590 C.3    72  SER72       0.2130
     59  OG        18.7250   -6.6240   23.8810 O.3    72  SER72      -0.2179
     60  N         16.0930   -8.2650   23.9030 N.am   73  TRP73      -0.1959
     61  CA        16.0730   -9.7270   24.0060 C.3    73  TRP73       0.1771
     62  C         15.0440  -10.2640   24.9570 C.2    73  TRP73       0.2620
     63  O         14.5460   -9.5540   25.8400 O.2    73  TRP73      -0.2715
     64  CB        17.4800  -10.3000   24.3240 C.3    73  TRP73       0.0590
     65  CG        18.0630   -9.9770   25.6650 C.ar   73  TRP73       0.0006
     66  CD1       18.8800   -8.9390   25.9650 C.ar   73  TRP73       0.0946
     67  CD2       17.9290  -10.7480   26.8830 C.ar   73  TRP73       0.0152
     68  NE1       19.2290   -8.9750   27.2900 N.ar   73  TRP73      -0.2442
     69  CE2       18.6740  -10.0810   27.8780 C.ar   73  TRP73       0.0810
     70  CE3       17.2330  -11.9220   27.2290 C.ar   73  TRP73       0.0012
     71  CZ2       18.7490  -10.5410   29.2120 C.ar   73  TRP73       0.0191
     72  CZ3       17.2980  -12.3920   28.5840 C.ar   73  TRP73       0.0001
     73  CH2       18.0550  -11.6950   29.5430 C.ar   73  TRP73       0.0015
     74  N         14.7130  -11.5310   24.7470 N.am   74  GLY74      -0.1940
     75  CA        13.7880  -12.2870   25.6070 C.3    74  GLY74       0.2014
     76  C         13.9620  -13.7850   25.3650 C.2    74  GLY74       0.2639
     77  O         14.4850  -14.2180   24.3170 O.2    74  GLY74      -0.2714
     78  N         13.5520  -14.5820   26.3390 N.am   75  GLU75      -0.1963
     79  CA        13.6140  -16.0430   26.1780 C.3    75  GLU75       0.1733
     80  C         12.2470  -16.5380   25.7050 C.2    75  GLU75       0.2617
     81  O         11.3280  -16.7690   26.4880 O.2    75  GLU75      -0.2715
     82  CB        14.0980  -16.7210   27.4600 C.3    75  GLU75       0.0429
     83  CG        15.6140  -16.6730   27.6330 C.3    75  GLU75       0.1163
     84  CD        16.0600  -16.7870   29.0940 C.2    75  GLU75       0.3649
     85  OE1       15.5060  -16.1070   29.9890 O.co2  75  GLU75      -0.2457
     86  OE2       16.9920  -17.5640   29.3490 O.co2  75  GLU75      -0.2457
     87  N         12.1070  -16.6550   24.3990 N.am   76  GLY76      -0.1940
     88  CA        10.7960  -16.8950   23.8390 C.3    76  GLY76       0.2014
     89  C          9.9050  -15.6670   24.0250 C.2    76  GLY76       0.2639
     90  O         10.3070  -14.7090   24.6690 O.2    76  GLY76      -0.2714
     91  N          8.7030  -15.7020   23.4520 N.am   77  CYS77      -0.1967
     92  CA         7.7850  -14.5940   23.5620 C.3    77  CYS77       0.1712
     93  C          6.5800  -14.9240   24.4580 C.2    77  CYS77       0.2296
     94  O          5.9600  -15.9730   24.3310 O.2    77  CYS77      -0.2864
     95  CB         7.3520  -14.1730   22.1760 C.3    77  CYS77       0.0983
     96  SG         8.7680  -13.9760   21.1830 S.3    77  CYS77      -0.0798
     97  N         10.3010  -12.1370   31.1210 N.3    83  TYR83      -0.1227
     98  CA        10.1060  -10.7010   30.7350 C.3    83  TYR83       0.1736
     99  C         10.9110  -10.2840   29.5090 C.2    83  TYR83       0.2596
    100  O         11.9610  -10.8340   29.2740 O.2    83  TYR83      -0.2718
    101  CB        10.4440   -9.7500   31.8880 C.3    83  TYR83       0.0548
    102  CG         9.7660  -10.1430   33.1480 C.ar   83  TYR83      -0.0200
    103  CD1       10.3090  -11.1100   33.9670 C.ar   83  TYR83      -0.0009
    104  CD2        8.5380   -9.5920   33.4850 C.ar   83  TYR83      -0.0009
    105  CE1        9.6620  -11.5080   35.1240 C.ar   83  TYR83       0.0417
    106  CE2        7.8810   -9.9700   34.6140 C.ar   83  TYR83       0.0417
    107  CZ         8.4570  -10.9300   35.4360 C.ar   83  TYR83       0.1957
    108  OH         7.8020  -11.2920   36.5530 O.3    83  TYR83      -0.2866
    109  N         10.4270   -9.2980   28.7510 N.am   84  GLY84      -0.1942
    110  CA        11.2230   -8.7110   27.6910 C.3    84  GLY84       0.2014
    111  C         12.3400   -7.8390   28.2040 C.2    84  GLY84       0.2639
    112  O         12.1370   -7.1000   29.1430 O.2    84  GLY84      -0.2714
    113  N         13.5160   -7.9050   27.5820 N.am   85  PHE85      -0.1959
    114  CA        14.6340   -7.0370   27.9820 C.3    85  PHE85       0.1771
    115  C         14.9430   -5.9240   26.9620 C.2    85  PHE85       0.2619
    116  O         14.7430   -6.1330   25.7690 O.2    85  PHE85      -0.2715
    117  CB        15.8710   -7.8550   28.3550 C.3    85  PHE85       0.0574
    118  CG        15.7490   -8.5790   29.7210 C.ar   85  PHE85      -0.0200
    119  CD1       14.8890   -9.6760   29.8790 C.ar   85  PHE85      -0.0042
    120  CD2       16.4840   -8.1620   30.8220 C.ar   85  PHE85      -0.0042
    121  CE1       14.7680  -10.3530   31.0950 C.ar   85  PHE85      -0.0003
    122  CE2       16.3700   -8.8310   32.0300 C.ar   85  PHE85      -0.0003
    123  CZ        15.5030   -9.9420   32.1450 C.ar   85  PHE85      -0.0000
    124  N         15.3500   -4.7330   27.4740 N.am   86  TYR86      -0.1974
    125  CA        15.5330   -3.4850   26.6880 C.3    86  TYR86       0.1639
    126  C         16.8810   -2.8460   26.9910 C.2    86  TYR86       0.2290
    127  O         17.3620   -2.9120   28.1480 O.2    86  TYR86      -0.2864
    128  CB        14.3940   -2.4810   26.9430 C.3    86  TYR86       0.0560
    129  CG        13.0830   -3.1040   26.5970 C.ar   86  TYR86      -0.0198
    130  CD1       12.4510   -4.0010   27.4930 C.ar   86  TYR86      -0.0009
    131  CD2       12.5080   -2.8800   25.3600 C.ar   86  TYR86      -0.0009
    132  CE1       11.2560   -4.6360   27.1550 C.ar   86  TYR86       0.0417
    133  CE2       11.3260   -3.5070   25.0090 C.ar   86  TYR86       0.0417
    134  CZ        10.7180   -4.3860   25.9090 C.ar   86  TYR86       0.1957
    135  OH         9.5640   -4.9900   25.5540 O.3    86  TYR86      -0.2866
@<TRIPOS>BOND
     1    40    39    2
     2    38    39    1
     3    38    37    1
     4    37    30   am
     5    31    30    2
     6    30    29    1
     7    35    34   ar
     8    44    43    2
     9    32    29    1
    10    32    33    1
    11    29    28    1
    12    34    33    1
    13    34    36   ar
    14    43    42    1
    15    45    42    1
    16    45    46    1
    17    41    42    1
    18    28    24   am
    19    25    24    2
    20    24    23    1
    21    27    26    1
    22    27    96    1
    23    26    23    1
    24    23    22    1
    25    22    19   am
    26    50    49    2
    27    51    52    1
    28    51    53    1
    29    51    48    1
    30    96    95    1
    31    57    56    2
    32    19    18    1
    33    19    20    2
    34    49    48    1
    35    49    54   am
    36    47    48    1
    37    18    21    1
    38    18    17    1
    39    95    92    1
    40    12    11    2
    41    56    55    1
    42    56    60   am
    43    55    54    1
    44    55    58    1
    45    17    11   am
    46    91    92    1
    47    91    89   am
    48    11    10    1
    49    92    93    1
    50    88    89    1
    51    88    87    1
    52    58    59    1
    53    60    61    1
    54    61    64    1
    55    61    62    1
    56    89    90    2
    57    77    76    2
    58    64    65    1
    59    94    93    2
    60    87    80   am
    61    74    62   am
    62    74    75    1
    63    10     9    1
    64    10    13    1
    65    62    63    2
    66   133   131   ar
    67   133   134   ar
    68    13    14    1
    69   131   129   ar
    70    76    75    1
    71    76    78   am
    72    14    15   ar
    73    14    16   ar
    74   135   134    1
    75    65    66   ar
    76    65    67   ar
    77    80    79    1
    78    80    81    2
    79   116   115    2
    80   134   132   ar
    81    66    68   ar
    82    79    78    1
    83    79    82    1
    84   129   128    1
    85   129   130   ar
    86   125   128    1
    87   125   126    1
    88   125   124    1
    89    67    70   ar
    90    67    69   ar
    91   115   124   am
    92   115   114    1
    93   126   127    2
    94   132   130   ar
    95    70    72   ar
    96    68    69   ar
    97    82    83    1
    98   113   114    1
    99   113   111   am
   100    83    84    1
   101   110   111    1
   102   110   109    1
   103    69    71   ar
   104   114   117    1
   105   111   112    2
   106   117   118    1
   107     8     6    1
   108    72    73   ar
   109   109    99   am
   110    84    86   ar
   111    84    85   ar
   112    71    73   ar
   113     6     5    1
   114   100    99    2
   115    99    98    1
   116   118   119   ar
   117   118   120   ar
   118     7     5    1
   119   119   121   ar
   120     5     2    1
   121    98    97    1
   122    98   101    1
   123   120   122   ar
   124   121   123   ar
   125     2     1    1
   126     2     3    1
   127   101   102    1
   128   122   123   ar
   129     3     4    2
   130   102   104   ar
   131   102   103   ar
   132   104   106   ar
   133   103   105   ar
   134   106   107   ar
   135   105   107   ar
   136   107   108    1
