@<TRIPOS>MOLECULE
tmp/2pkuA00.pdb
 134 126 0 0 0
SMALL
GASTEIGER

@<TRIPOS>ATOM
      1  N          4.2040   14.0020    4.4410 N.3    10  LYS10      -0.1245
      2  CA         4.5040   13.6890    5.8340 C.3    10  LYS10       0.1561
      3  C          3.5730   14.4450    6.7760 C.2    10  LYS10       0.2260
      4  O          3.0100   15.4760    6.4130 O.2    10  LYS10      -0.2867
      5  CB         5.9590   14.0310    6.1540 C.3    10  LYS10       0.0271
      6  CG         6.9390   12.9270    5.7870 C.3    10  LYS10       0.0035
      7  CD         6.9750   11.8410    6.8490 C.3    10  LYS10       0.0206
      8  CE         7.8350   10.6650    6.4140 C.3    10  LYS10       0.1093
      9  NZ         7.9550    9.6390    7.4860 N.3    10  LYS10      -0.1314
     10  N          4.4400   15.1170   12.7800 N.3    13  GLN13      -0.1245
     11  CA         5.4930   14.4110   13.5020 C.3    13  GLN13       0.1566
     12  C          6.4100   13.6650   12.5370 C.2    13  GLN13       0.2260
     13  O          6.9770   12.6290   12.8850 O.2    13  GLN13      -0.2867
     14  CB         4.8840   13.4300   14.5040 C.3    13  GLN13       0.0367
     15  CG         4.0260   12.3550   13.8580 C.3    13  GLN13       0.0905
     16  CD         2.7950   12.0210   14.6780 C.2    13  GLN13       0.2608
     17  OE1        2.8730   11.2930   15.6670 O.2    13  GLN13      -0.2717
     18  NE2        1.6500   12.5520   14.2680 N.am   13  GLN13      -0.0878
     19  N          5.9320   11.6530   10.2340 N.3    15  LEU15      -0.1231
     20  CA         5.5990   10.2340   10.1750 C.3    15  LEU15       0.1693
     21  C          4.2820   10.0150    9.4380 C.2    15  LEU15       0.2592
     22  O          3.2080   10.2970    9.9680 O.2    15  LEU15      -0.2718
     23  CB         5.5110    9.6510   11.5880 C.3    15  LEU15       0.0284
     24  CG         6.8360    9.5940   12.3490 C.3    15  LEU15       0.0019
     25  CD1        6.5870    9.3910   13.8350 C.3    15  LEU15       0.0001
     26  CD2        7.7170    8.4820   11.7980 C.3    15  LEU15       0.0001
     27  N          4.3740    9.5090    8.2110 N.am   16  ILE16      -0.1966
     28  CA         3.1880    9.2510    7.4010 C.3    16  ILE16       0.1727
     29  C          2.2120    8.3300    8.1280 C.2    16  ILE16       0.2617
     30  O          1.0020    8.4010    7.9140 O.2    16  ILE16      -0.2715
     31  CB         3.5560    8.6250    6.0410 C.3    16  ILE16       0.0290
     32  CG1        4.5360    7.4670    6.2270 C.3    16  ILE16       0.0022
     33  CG2        4.1440    9.6800    5.1170 C.3    16  ILE16       0.0023
     34  CD1        4.8130    6.6990    4.9530 C.3    16  ILE16       0.0001
     35  N          2.7450    7.4720    8.9910 N.am   17  GLY17      -0.1940
     36  CA         1.9050    6.5550    9.7380 C.3    17  GLY17       0.2014
     37  C          1.6220    5.2690    8.9850 C.2    17  GLY17       0.2639
     38  O          0.5530    5.1110    8.3960 O.2    17  GLY17      -0.2714
     39  N          2.5810    4.3500    9.0080 N.am   18  ILE18      -0.1963
     40  CA         2.4330    3.0680    8.3280 C.3    18  ILE18       0.1727
     41  C          3.4610    2.0610    8.8320 C.2    18  ILE18       0.2617
     42  O          4.6510    2.3630    8.9150 O.2    18  ILE18      -0.2715
     43  CB         2.5790    3.2100    6.8000 C.3    18  ILE18       0.0290
     44  CG1        3.7270    4.1620    6.4570 C.3    18  ILE18       0.0022
     45  CG2        1.2760    3.6990    6.1840 C.3    18  ILE18       0.0023
     46  CD1        4.5840    3.6860    5.3040 C.3    18  ILE18       0.0001
     47  N          2.9950    0.8640    9.1720 N.am   19  SER19      -0.1936
     48  CA         3.8750   -0.1870    9.6710 C.3    19  SER19       0.2055
     49  C          4.3490   -1.0860    8.5350 C.2    19  SER19       0.2643
     50  O          3.6960   -1.1920    7.4970 O.2    19  SER19      -0.2714
     51  CB         3.1560   -1.0220   10.7320 C.3    19  SER19       0.2130
     52  OG         1.9110   -1.4970   10.2490 O.3    19  SER19      -0.2179
     53  N          5.4920   -1.7360    8.7410 N.am   20  ILE20      -0.1963
     54  CA         6.0560   -2.6280    7.7360 C.3    20  ILE20       0.1727
     55  C          6.5850   -3.9080    8.3760 C.2    20  ILE20       0.2616
     56  O          6.5080   -4.0830    9.5910 O.2    20  ILE20      -0.2715
     57  CB         7.1960   -1.9480    6.9550 C.3    20  ILE20       0.0290
     58  CG1        8.1720   -1.2690    7.9170 C.3    20  ILE20       0.0022
     59  CG2        6.6300   -0.9400    5.9660 C.3    20  ILE20       0.0023
     60  CD1        9.6100   -1.3140    7.4500 C.3    20  ILE20       0.0001
     61  N          7.1240   -4.7980    7.5490 N.am   21  GLY21      -0.1955
     62  CA         7.6570   -6.0490    8.0540 C.3    21  GLY21       0.1869
     63  C          8.5880   -6.7240    7.0650 C.2    21  GLY21       0.2309
     64  O          8.2000   -7.0130    5.9320 O.2    21  GLY21      -0.2863
     65  N          2.2360   -3.7860    7.0710 N.3    33  VAL33      -0.1245
     66  CA         1.4550   -4.5600    8.0290 C.3    33  VAL33       0.1561
     67  C          0.0770   -3.9450    8.2450 C.2    33  VAL33       0.2260
     68  O         -0.9440   -4.6040    8.0520 O.2    33  VAL33      -0.2867
     69  CB         2.1760   -4.6630    9.3860 C.3    33  VAL33       0.0252
     70  CG1        1.4500   -5.6360   10.3040 C.3    33  VAL33       0.0019
     71  CG2        3.6240   -5.0810    9.1880 C.3    33  VAL33       0.0019
     72  N         -2.2130    3.4620   10.9350 N.3    36  PHE36      -0.1241
     73  CA        -2.6610    4.0540   12.1890 C.3    36  PHE36       0.1605
     74  C         -3.7030    5.1360   11.9290 C.2    36  PHE36       0.2264
     75  O         -3.7360    5.7370   10.8570 O.2    36  PHE36      -0.2867
     76  CB        -1.4740    4.6410   12.9550 C.3    36  PHE36       0.0534
     77  CG        -0.8670    3.6830   13.9410 C.ar   36  PHE36      -0.0203
     78  CD1       -1.6180    3.1860   14.9940 C.ar   36  PHE36      -0.0042
     79  CD2        0.4520    3.2810   13.8140 C.ar   36  PHE36      -0.0042
     80  CE1       -1.0650    2.3030   15.9010 C.ar   36  PHE36      -0.0003
     81  CE2        1.0110    2.3970   14.7200 C.ar   36  PHE36      -0.0003
     82  CZ         0.2520    1.9090   15.7650 C.ar   36  PHE36      -0.0000
     83  N         -3.6680    9.3600   10.5500 N.3    39  THR39      -0.1218
     84  CA        -2.4340    9.4180    9.7740 C.3    39  THR39       0.1862
     85  C         -2.7300    9.7460    8.3130 C.2    39  THR39       0.2287
     86  O         -3.7670    9.3540    7.7810 O.2    39  THR39      -0.2866
     87  CB        -1.6800    8.0900    9.8650 C.3    39  THR39       0.1770
     88  OG1       -2.4150    7.0510    9.2430 O.3    39  THR39      -0.2211
     89  CG2       -1.3930    7.6610   11.2880 C.3    39  THR39       0.0375
     90  N         14.7620   -3.7370    7.5690 N.3    66  LYS66      -0.1231
     91  CA        13.6290   -3.0880    8.2210 C.3    66  LYS66       0.1693
     92  C         14.0310   -1.7300    8.7900 C.2    66  LYS66       0.2591
     93  O         13.3880   -0.7160    8.5160 O.2    66  LYS66      -0.2718
     94  CB        13.0740   -3.9810    9.3330 C.3    66  LYS66       0.0285
     95  CG        11.6610   -4.4740    9.0690 C.3    66  LYS66       0.0035
     96  CD        10.8090   -4.4290   10.3280 C.3    66  LYS66       0.0206
     97  CE        11.3820   -5.3170   11.4210 C.3    66  LYS66       0.1093
     98  NZ        10.9180   -6.7270   11.2910 N.3    66  LYS66      -0.1314
     99  N         15.0990   -1.7190    9.5810 N.am   67  VAL67      -0.1980
    100  CA        15.5870   -0.4880   10.1880 C.3    67  VAL67       0.1595
    101  C         16.0210    0.5130    9.1210 C.2    67  VAL67       0.2287
    102  O         15.8920    1.7250    9.3030 O.2    67  VAL67      -0.2864
    103  CB        16.7710   -0.7630   11.1370 C.3    67  VAL67       0.0276
    104  CG1       17.9410   -1.3690   10.3760 C.3    67  VAL67       0.0022
    105  CG2       17.1940    0.5130   11.8510 C.3    67  VAL67       0.0022
    106  N         14.7750    0.8060    5.9260 N.3    69  VAL69      -0.1231
    107  CA        13.5880    1.3710    5.2920 C.3    69  VAL69       0.1692
    108  C         12.8780    2.3450    6.2280 C.2    69  VAL69       0.2591
    109  O         12.4540    3.4220    5.8120 O.2    69  VAL69      -0.2718
    110  CB        12.5990    0.2690    4.8670 C.3    69  VAL69       0.0266
    111  CG1       11.4540    0.8620    4.0600 C.3    69  VAL69       0.0020
    112  CG2       13.3170   -0.8160    4.0750 C.3    69  VAL69       0.0020
    113  N         12.7530    1.9580    7.4930 N.am   70  ALA70      -0.1980
    114  CA        12.0940    2.7950    8.4890 C.3    70  ALA70       0.1597
    115  C         12.7590    4.1650    8.5830 C.2    70  ALA70       0.2287
    116  O         12.0920    5.1960    8.5020 O.2    70  ALA70      -0.2864
    117  CB        12.1040    2.1080    9.8460 C.3    70  ALA70       0.0319
    118  N         12.2050    6.5330    5.4040 N.3    73  ILE73      -0.1231
    119  CA        10.9800    7.3260    5.3620 C.3    73  ILE73       0.1692
    120  C         11.0320    8.4650    6.3730 C.2    73  ILE73       0.2591
    121  O         10.7020    9.6080    6.0530 O.2    73  ILE73      -0.2718
    122  CB         9.7320    6.4630    5.6430 C.3    73  ILE73       0.0266
    123  CG1        9.8040    5.1370    4.8800 C.3    73  ILE73       0.0019
    124  CG2        8.4710    7.2260    5.2680 C.3    73  ILE73       0.0020
    125  CD1       10.0510    5.2990    3.3960 C.3    73  ILE73       0.0001
    126  N         11.4460    8.1480    7.5960 N.am   74  GLN74      -0.1979
    127  CA        11.5400    9.1470    8.6550 C.3    74  GLN74       0.1601
    128  C         12.4740   10.2830    8.2510 C.2    74  GLN74       0.2287
    129  O         12.2970   11.4250    8.6730 O.2    74  GLN74      -0.2864
    130  CB        12.0330    8.5010    9.9520 C.3    74  GLN74       0.0394
    131  CG        11.0890    7.4450   10.5030 C.3    74  GLN74       0.0908
    132  CD        11.6720    6.7050   11.6910 C.2    74  GLN74       0.2608
    133  OE1       12.8450    6.3350   11.6900 O.2    74  GLN74      -0.2717
    134  NE2       10.8510    6.4850   12.7120 N.am   74  GLN74      -0.0878
@<TRIPOS>BOND
     1   125   123    1
     2   111   110    1
     3   112   110    1
     4     1     2    1
     5   110   107    1
     6   123   122    1
     7    34    32    1
     8    33    31    1
     9   124   122    1
    10   107   106    1
    11   107   108    1
    12    46    44    1
    13   119   118    1
    14   119   122    1
    15   119   120    1
    16     6     5    1
    17     6     7    1
    18   109   108    2
    19     2     5    1
    20     2     3    1
    21    64    63    2
    22    59    57    1
    23    31    32    1
    24    31    28    1
    25   121   120    2
    26    45    43    1
    27   108   113   am
    28   120   126   am
    29     4     3    2
    30     8     7    1
    31     8     9    1
    32    44    43    1
    33    43    40    1
    34    57    54    1
    35    57    58    1
    36    63    62    1
    37    65    66    1
    38    28    29    1
    39    28    27    1
    40    60    58    1
    41   113   114    1
    42    50    49    2
    43    61    62    1
    44    61    55   am
    45    90    91    1
    46   126   127    1
    47    54    55    1
    48    54    53    1
    49    86    85    2
    50    30    29    2
    51    66    67    1
    52    66    69    1
    53    68    67    2
    54    29    35   am
    55    27    21   am
    56    91    92    1
    57    91    94    1
    58   128   127    1
    59   128   129    2
    60    85    84    1
    61    40    41    1
    62    40    39    1
    63    55    56    2
    64    38    37    2
    65   114   115    1
    66   114   117    1
    67   116   115    2
    68    93    92    2
    69    49    53   am
    70    49    48    1
    71   127   130    1
    72    92    99   am
    73    41    42    2
    74    41    47   am
    75    37    39   am
    76    37    36    1
    77    35    36    1
    78    95    94    1
    79    95    96    1
    80   101   102    2
    81   101   100    1
    82    47    48    1
    83    71    69    1
    84    88    87    1
    85    69    70    1
    86    21    22    2
    87    21    20    1
    88    99   100    1
    89    48    51    1
    90    84    87    1
    91    84    83    1
    92    87    89    1
    93   130   131    1
    94    20    19    1
    95    20    23    1
    96   100   103    1
    97    52    51    1
    98    96    97    1
    99   104   103    1
   100   131   132    1
   101    75    74    2
   102    72    73    1
   103   103   105    1
   104    98    97    1
   105    23    24    1
   106   133   132    2
   107   132   134   am
   108    26    24    1
   109    74    73    1
   110    73    76    1
   111    24    25    1
   112    12    13    2
   113    12    11    1
   114    10    11    1
   115    76    77    1
   116    11    14    1
   117    79    77   ar
   118    79    81   ar
   119    15    14    1
   120    15    16    1
   121    77    78   ar
   122    18    16   am
   123    16    17    2
   124    81    82   ar
   125    78    80   ar
   126    82    80   ar
