@<TRIPOS>MOLECULE
tmp/2pkwA00.pdb
 104 98 0 0 0
SMALL
GASTEIGER

@<TRIPOS>ATOM
      1  N          5.7050   18.3750   18.5430 N.3    90  ALA90      -0.1231
      2  CA         5.2720   19.3600   19.5310 C.3    90  ALA90       0.1694
      3  C          4.5250   18.8100   20.7550 C.2    90  ALA90       0.2592
      4  O          4.3070   19.5410   21.7210 O.2    90  ALA90      -0.2718
      5  CB         4.4270   20.4280   18.8450 C.3    90  ALA90       0.0304
      6  N          4.1590   17.5300   20.7170 N.am   91  THR91      -0.1953
      7  CA         3.4350   16.8690   21.8110 C.3    91  THR91       0.1897
      8  C          4.1120   15.5550   22.2460 C.2    91  THR91       0.2313
      9  O          3.4440   14.5390   22.4330 O.2    91  THR91      -0.2863
     10  CB         1.9990   16.5270   21.3770 C.3    91  THR91       0.1794
     11  OG1        2.0400   15.8440   20.1180 O.3    91  THR91      -0.2208
     12  CG2        1.1610   17.7900   21.2320 C.3    91  THR91       0.0378
     13  N          4.8850   13.3410   24.4550 N.3    93  GLY93      -0.1225
     14  CA         4.1850   12.2140   25.0430 C.3    93  GLY93       0.1811
     15  C          5.1820   11.1930   25.5630 C.2    93  GLY93       0.2280
     16  O          6.1170   11.5420   26.2810 O.2    93  GLY93      -0.2866
     17  N          9.0520   18.4190   21.9130 N.3   110  LEU110     -0.1231
     18  CA         8.7190   19.4840   22.8390 C.3   110  LEU110      0.1693
     19  C          7.7490   18.8870   23.8480 C.2   110  LEU110      0.2592
     20  O          6.7100   18.3360   23.4690 O.2   110  LEU110     -0.2718
     21  CB         8.0250   20.6270   22.1010 C.3   110  LEU110      0.0284
     22  CG         8.6940   22.0040   22.1350 C.3   110  LEU110      0.0019
     23  CD1       10.1130   21.8750   21.6210 C.3   110  LEU110      0.0001
     24  CD2        7.9100   22.9990   21.2800 C.3   110  LEU110      0.0001
     25  N          8.1060   18.9570   25.1230 N.am  111  GLU111     -0.1966
     26  CA         7.2370   18.4640   26.1790 C.3   111  GLU111      0.1733
     27  C          7.1230   19.5480   27.2320 C.2   111  GLU111      0.2616
     28  O          8.1290   20.0120   27.7640 O.2   111  GLU111     -0.2715
     29  CB         7.7990   17.2030   26.8240 C.3   111  GLU111      0.0429
     30  CG         6.9700   16.7490   28.0120 C.3   111  GLU111      0.1163
     31  CD         5.5250   16.5410   27.6310 C.2   111  GLU111      0.3649
     32  OE1        5.2480   15.6190   26.8310 O.co2 111  GLU111     -0.2457
     33  OE2        4.6680   17.3100   28.1190 O.co2 111  GLU111     -0.2457
     34  N          5.8930   19.9370   27.5430 N.am  112  ARG112     -0.1963
     35  CA         5.6400   20.9820   28.5290 C.3   112  ARG112      0.1729
     36  C          5.4190   20.4400   29.9400 C.2   112  ARG112      0.2616
     37  O          5.6330   21.1500   30.9170 O.2   112  ARG112     -0.2715
     38  CB         4.4150   21.7920   28.1010 C.3   112  ARG112      0.0348
     39  CG         3.0960   21.0010   28.1410 C.3   112  ARG112      0.0492
     40  CD         1.9350   21.8650   27.6510 C.3   112  ARG112      0.2205
     41  NE         0.6220   21.2320   27.7650 N.pl3 112  ARG112     -0.0865
     42  CZ        -0.5220   21.8840   27.5740 C.cat 112  ARG112      0.5346
     43  NH1       -0.4890   23.1760   27.2640 N.pl3 112  ARG112      0.1354
     44  NH2       -1.6910   21.2600   27.6980 N.pl3 112  ARG112      0.1354
     45  N          4.9770   19.1900   30.0480 N.am  113  ASN113     -0.1972
     46  CA         4.7230   18.5900   31.3590 C.3   113  ASN113      0.1688
     47  C          6.0490   18.1370   31.9800 C.2   113  ASN113      0.2292
     48  O          6.6980   17.2260   31.4690 O.2   113  ASN113     -0.2864
     49  CB         3.7700   17.4070   31.2050 C.3   113  ASN113      0.1181
     50  CG         3.3830   16.8080   32.5310 C.2   113  ASN113      0.2629
     51  OD1        4.2230   16.2490   33.2440 O.2   113  ASN113     -0.2716
     52  ND2        2.1110   16.9240   32.8800 N.am  113  ASN113     -0.0877
     53  N          6.5670   14.3350   32.5950 N.3   116  VAL116     -0.1245
     54  CA         6.7440   13.6170   31.3290 C.3   116  VAL116      0.1561
     55  C          8.1300   13.9020   30.7520 C.2   116  VAL116      0.2260
     56  O          8.7520   13.0190   30.1530 O.2   116  VAL116     -0.2867
     57  CB         5.6450   14.0060   30.2710 C.3   116  VAL116      0.0252
     58  CG1        5.7980   13.1540   29.0070 C.3   116  VAL116      0.0019
     59  CG2        4.2440   13.7890   30.8570 C.3   116  VAL116      0.0019
     60  N          0.0030   15.3430   18.3650 N.3   165  ASP165     -0.1225
     61  CA        -0.8320   14.2520   18.8510 C.3   165  ASP165      0.1790
     62  C         -1.2330   14.5230   20.3000 C.2   165  ASP165      0.2439
     63  O         -0.9060   13.7520   21.2090 O.2   165  ASP165     -0.2733
     64  CB        -0.0890   12.9100   18.7230 C.3   165  ASP165      0.1423
     65  CG        -0.8490   11.7570   19.3560 C.2   165  ASP165      0.3668
     66  OD1       -2.1000   11.7870   19.3420 O.co2 165  ASP165     -0.2456
     67  OD2       -0.1940   10.8170   19.8630 O.co2 165  ASP165     -0.2456
     68  N         -1.9520   15.6350   20.5310 N.am  166  PRO166     -0.2729
     69  CA        -2.3930   16.0020   21.8790 C.3   166  PRO166      0.1401
     70  C         -3.3310   14.9650   22.4650 C.2   166  PRO166      0.2269
     71  O         -4.0150   14.2600   21.7300 O.2   166  PRO166     -0.2865
     72  CB        -3.0850   17.3450   21.6610 C.3   166  PRO166      0.0296
     73  CG        -3.7140   17.1630   20.3270 C.3   166  PRO166      0.0237
     74  CD        -2.5680   16.5230   19.5300 C.3   166  PRO166      0.0939
     75  N         -0.8180    6.9210   31.8050 N.3   182  PHE182     -0.1241
     76  CA        -0.4180    8.2050   31.2500 C.3   182  PHE182      0.1605
     77  C         -1.5500    9.2260   31.2860 C.2   182  PHE182      0.2264
     78  O         -1.3240   10.3870   31.6380 O.2   182  PHE182     -0.2867
     79  CB         0.0920    8.0210   29.8210 C.3   182  PHE182      0.0534
     80  CG         0.9100    9.1790   29.3110 C.ar  182  PHE182     -0.0203
     81  CD1        0.4530    9.9630   28.2550 C.ar  182  PHE182     -0.0042
     82  CD2        2.1400    9.4810   29.8830 C.ar  182  PHE182     -0.0042
     83  CE1        1.2160   11.0360   27.7770 C.ar  182  PHE182     -0.0003
     84  CE2        2.9100   10.5490   29.4130 C.ar  182  PHE182     -0.0003
     85  CZ         2.4460   11.3260   28.3590 C.ar  182  PHE182     -0.0000
     86  N         -1.3930   13.2750   32.7970 N.3   186  VAL186     -0.1231
     87  CA        -1.5380   14.4850   32.0080 C.3   186  VAL186      0.1692
     88  C         -2.9800   14.9060   31.7460 C.2   186  VAL186      0.2592
     89  O         -3.2870   16.1020   31.6980 O.2   186  VAL186     -0.2718
     90  CB        -0.7830   14.3270   30.6730 C.3   186  VAL186      0.0266
     91  CG1        0.6610   13.9530   30.9570 C.3   186  VAL186      0.0020
     92  CG2       -1.4260   13.2440   29.8220 C.3   186  VAL186      0.0020
     93  N         -3.8570   13.9200   31.5730 N.am  187  GLY187     -0.1957
     94  CA        -5.2570   14.1990   31.3170 C.3   187  GLY187      0.1869
     95  C         -5.4490   14.7930   29.9370 C.2   187  GLY187      0.2309
     96  O         -4.4780   15.0200   29.2190 O.2   187  GLY187     -0.2863
     97  N         -5.7660   17.3200   26.8940 N.3   189  ASP189     -0.1239
     98  CA        -5.1730   18.6360   26.6950 C.3   189  ASP189      0.1674
     99  C         -6.3070   19.5930   26.3590 C.2   189  ASP189      0.2266
    100  O         -6.6980   19.7440   25.1990 O.2   189  ASP189     -0.2867
    101  CB        -4.1470   18.6140   25.5650 C.3   189  ASP189      0.1410
    102  CG        -2.8540   17.9460   25.9730 C.2   189  ASP189      0.3668
    103  OD1       -2.2330   18.4170   26.9520 O.co2 189  ASP189     -0.2456
    104  OD2       -2.4570   16.9550   25.3160 O.co2 189  ASP189     -0.2456
@<TRIPOS>BOND
     1    60    61    1
     2     1     2    1
     3    64    61    1
     4    64    65    1
     5     5     2    1
     6    61    62    1
     7    66    65   ar
     8    65    67   ar
     9    74    73    1
    10    74    68    1
    11     2     3    1
    12    11    10    1
    13    62    68   am
    14    62    63    2
    15    73    72    1
    16    68    69    1
    17     6     3   am
    18     6     7    1
    19     3     4    2
    20    12    10    1
    21    24    22    1
    22    10     7    1
    23    23    22    1
    24    72    69    1
    25    71    70    2
    26     7     8    1
    27    69    70    1
    28    17    18    1
    29    21    22    1
    30    21    18    1
    31     8     9    2
    32    18    19    1
    33    20    19    2
    34    19    25   am
    35    13    14    1
    36    14    15    1
    37    25    26    1
    38   100    99    2
    39   104   102   ar
    40    15    16    2
    41   101   102    1
    42   101    98    1
    43   102   103   ar
    44    26    29    1
    45    26    27    1
    46    99    98    1
    47    98    97    1
    48    29    30    1
    49    32    31   ar
    50    27    34   am
    51    27    28    2
    52    43    42    1
    53    34    35    1
    54    42    44    1
    55    42    41    2
    56    31    30    1
    57    31    33   ar
    58    40    41    1
    59    40    39    1
    60    83    81   ar
    61    83    85   ar
    62    38    39    1
    63    38    35    1
    64    81    80   ar
    65    85    84   ar
    66    35    36    1
    67    58    57    1
    68    96    95    2
    69    80    79    1
    70    80    82   ar
    71    84    82   ar
    72    79    76    1
    73    92    90    1
    74    95    94    1
    75    36    45   am
    76    36    37    2
    77    45    46    1
    78    56    55    2
    79    57    59    1
    80    57    54    1
    81    90    91    1
    82    90    87    1
    83    55    54    1
    84    49    46    1
    85    49    50    1
    86    76    77    1
    87    76    75    1
    88    77    78    2
    89    94    93    1
    90    54    53    1
    91    46    47    1
    92    48    47    2
    93    93    88   am
    94    89    88    2
    95    88    87    1
    96    87    86    1
    97    50    52   am
    98    50    51    2
