@<TRIPOS>MOLECULE
tmp/2pl0A00.pdb
 227 217 0 0 0
SMALL
GASTEIGER

@<TRIPOS>ATOM
      1  N         28.7730    8.0600    2.6750 N.3    21  LEU21      -0.1245
      2  CA        29.8820    8.6580    3.4110 C.3    21  LEU21       0.1561
      3  C         30.2720    7.8640    4.6540 C.2    21  LEU21       0.2260
      4  O         31.4460    7.8320    5.0240 O.2    21  LEU21      -0.2867
      5  CB        29.5330   10.0930    3.8150 C.3    21  LEU21       0.0270
      6  CG        29.7010   11.1870    2.7570 C.3    21  LEU21       0.0019
      7  CD1       31.1780   11.4110    2.4830 C.3    21  LEU21       0.0001
      8  CD2       28.9730   10.7930    1.4870 C.3    21  LEU21       0.0001
      9  N         24.9970    7.6810    6.4460 N.3    29  VAL29      -0.1245
     10  CA        25.0820    9.0710    6.0110 C.3    29  VAL29       0.1561
     11  C         25.5240    9.1380    4.5540 C.2    29  VAL29       0.2260
     12  O         26.6410    8.7680    4.1980 O.2    29  VAL29      -0.2867
     13  CB        26.0900    9.8690    6.8600 C.3    29  VAL29       0.0252
     14  CG1       26.1880   11.2910    6.3420 C.3    29  VAL29       0.0019
     15  CG2       25.6610    9.8650    8.3180 C.3    29  VAL29       0.0019
     16  N         24.0760   16.6200    2.5040 N.3    41  ALA41      -0.1231
     17  CA        24.4130   15.4830    3.3490 C.3    41  ALA41       0.1694
     18  C         23.1270   14.9310    3.9570 C.2    41  ALA41       0.2592
     19  O         22.2840   15.6770    4.4600 O.2    41  ALA41      -0.2718
     20  CB        25.3760   15.9140    4.4480 C.3    41  ALA41       0.0304
     21  N         22.9740   13.6130    3.9020 N.am   42  VAL42      -0.1966
     22  CA        21.7290   12.9870    4.3180 C.3    42  VAL42       0.1727
     23  C         21.9670   11.9290    5.3840 C.2    42  VAL42       0.2616
     24  O         22.6120   10.9080    5.1410 O.2    42  VAL42      -0.2715
     25  CB        21.0140   12.3320    3.1190 C.3    42  VAL42       0.0290
     26  CG1       19.6400   11.8230    3.5410 C.3    42  VAL42       0.0023
     27  CG2       20.8840   13.3370    1.9840 C.3    42  VAL42       0.0023
     28  N         21.4420   12.1840    6.5770 N.am   43  LYS43      -0.1977
     29  CA        21.4970   11.2130    7.6590 C.3    43  LYS43       0.1596
     30  C         20.1990   10.4130    7.6530 C.2    43  LYS43       0.2287
     31  O         19.1020   10.9740    7.7130 O.2    43  LYS43      -0.2864
     32  CB        21.6640   11.9310    9.0020 C.3    43  LYS43       0.0298
     33  CG        22.0260   10.9910   10.1440 C.3    43  LYS43       0.0038
     34  CD        22.1810   11.7120   11.4780 C.3    43  LYS43       0.0206
     35  CE        23.0000   10.9690   12.5290 C.3    43  LYS43       0.1093
     36  NZ        22.9310   11.6110   13.8760 N.3    43  LYS43      -0.1314
     37  N         16.8000   14.9640   17.2810 N.3    58  GLU58      -0.1245
     38  CA        17.9320   15.7210   16.7760 C.3    58  GLU58       0.1567
     39  C         17.4590   16.7840   15.7930 C.2    58  GLU58       0.2260
     40  O         17.6930   17.9840   15.9700 O.2    58  GLU58      -0.2867
     41  CB        18.9270   14.7930   16.0780 C.3    58  GLU58       0.0388
     42  CG        20.1080   15.5710   15.5200 C.3    58  GLU58       0.1160
     43  CD        21.1220   14.7010   14.8110 C.2    58  GLU58       0.3649
     44  OE1       20.8850   13.4790   14.7020 O.co2  58  GLU58      -0.2457
     45  OE2       22.1550   15.2430   14.3610 O.co2  58  GLU58      -0.2457
     46  N         15.9630   19.7400   17.4670 N.3    61  LEU61      -0.1231
     47  CA        16.8850   20.7100   18.0530 C.3    61  LEU61       0.1693
     48  C         17.4340   21.6410   16.9770 C.2    61  LEU61       0.2591
     49  O         17.5240   22.8590   17.1480 O.2    61  LEU61      -0.2718
     50  CB        18.0560   20.0070   18.7400 C.3    61  LEU61       0.0284
     51  CG        17.9180   19.5440   20.1900 C.3    61  LEU61       0.0019
     52  CD1       19.3060   19.2710   20.7440 C.3    61  LEU61       0.0001
     53  CD2       17.2160   20.6100   21.0280 C.3    61  LEU61       0.0001
     54  N         17.8010   21.0440   15.8490 N.am   62  MET62      -0.1979
     55  CA        18.3810   21.7900   14.7440 C.3    62  MET62       0.1605
     56  C         17.4530   22.8970   14.2510 C.2    62  MET62       0.2287
     57  O         17.9230   23.9670   13.8670 O.2    62  MET62      -0.2864
     58  CB        18.7270   20.8330   13.6040 C.3    62  MET62       0.0413
     59  CG        19.7020   19.7660   14.0680 C.3    62  MET62       0.0598
     60  SD        20.1550   18.5890   12.7940 S.3    62  MET62      -0.1393
     61  CE        21.0070   19.6640   11.6180 C.3    62  MET62       0.0692
     62  N         17.7370   25.5330   17.0750 N.3    65  LEU65      -0.1245
     63  CA        19.0590   26.0840   17.3290 C.3    65  LEU65       0.1561
     64  C         19.7030   26.5860   16.0460 C.2    65  LEU65       0.2260
     65  O         20.9060   26.4210   15.8380 O.2    65  LEU65      -0.2867
     66  CB        19.9520   25.0220   17.9740 C.3    65  LEU65       0.0270
     67  CG        19.5080   24.6290   19.3850 C.3    65  LEU65       0.0019
     68  CD1       20.3400   23.4580   19.8930 C.3    65  LEU65       0.0001
     69  CD2       19.6570   25.8290   20.3050 C.3    65  LEU65       0.0001
     70  N         26.1410   27.5940   13.3520 N.3    70  LEU70      -0.1231
     71  CA        25.7350   26.1970   13.4620 C.3    70  LEU70       0.1693
     72  C         25.4580   25.6560   12.0700 C.2    70  LEU70       0.2591
     73  O         25.0750   26.4180   11.1870 O.2    70  LEU70      -0.2718
     74  CB        24.4710   26.0740   14.3160 C.3    70  LEU70       0.0284
     75  CG        24.6310   25.9440   15.8320 C.3    70  LEU70       0.0019
     76  CD1       25.1070   24.5520   16.1600 C.3    70  LEU70       0.0001
     77  CD2       25.6100   26.9800   16.3540 C.3    70  LEU70       0.0001
     78  N         25.6570   24.3590   11.8670 N.am   71  VAL71      -0.1980
     79  CA        25.2450   23.7400   10.6190 C.3    71  VAL71       0.1595
     80  C         23.7320   23.8750   10.5410 C.2    71  VAL71       0.2287
     81  O         23.0200   23.5460   11.4910 O.2    71  VAL71      -0.2864
     82  CB        25.6400   22.2440   10.5640 C.3    71  VAL71       0.0276
     83  CG1       25.0310   21.4980   11.7360 C.3    71  VAL71       0.0022
     84  CG2       25.1740   21.6300    9.2590 C.3    71  VAL71       0.0022
     85  N         17.3610   13.1190    7.9250 N.3    84  ILE84      -0.1245
     86  CA        17.6910   14.5030    8.2350 C.3    84  ILE84       0.1561
     87  C         18.6680   14.9910    7.1700 C.2    84  ILE84       0.2260
     88  O         19.7120   14.3820    6.9390 O.2    84  ILE84      -0.2867
     89  CB        18.3530   14.6340    9.6220 C.3    84  ILE84       0.0252
     90  CG1       17.4460   14.0300   10.6990 C.3    84  ILE84       0.0019
     91  CG2       18.6120   16.1000    9.9340 C.3    84  ILE84       0.0019
     92  CD1       18.0510   14.0470   12.0930 C.3    84  ILE84       0.0001
     93  N         21.0610   18.1000    5.6640 N.3    86  THR86      -0.1203
     94  CA        21.7090   19.4070    5.6470 C.3    86  THR86       0.1994
     95  C         22.3870   19.6030    4.2970 C.2    86  THR86       0.2618
     96  O         22.4450   18.6730    3.4950 O.2    86  THR86      -0.2717
     97  CB        22.7950   19.5350    6.7360 C.3    86  THR86       0.1784
     98  OG1       23.8190   18.5580    6.5110 O.3    86  THR86      -0.2211
     99  CG2       22.1900   19.3460    8.1210 C.3    86  THR86       0.0376
    100  N         22.8950   20.8070    4.0500 N.am   87  GLU87      -0.1965
    101  CA        23.6520   21.0730    2.8350 C.3    87  GLU87       0.1733
    102  C         25.0760   20.5630    2.9350 C.2    87  GLU87       0.2616
    103  O         25.6490   20.4750    4.0190 O.2    87  GLU87      -0.2715
    104  CB        23.6690   22.5680    2.5320 C.3    87  GLU87       0.0429
    105  CG        22.7100   22.9130    1.4120 C.3    87  GLU87       0.1163
    106  CD        22.4150   24.3930    1.4780 C.2    87  GLU87       0.3649
    107  OE1       22.1160   24.8880    2.5870 O.co2  87  GLU87      -0.2457
    108  OE2       22.4840   25.0600    0.4220 O.co2  87  GLU87      -0.2457
    109  N         25.6440   20.2280    1.7820 N.am   88  TYR88      -0.1960
    110  CA        26.9860   19.6710    1.7210 C.3    88  TYR88       0.1771
    111  C         28.0290   20.7730    1.5800 C.2    88  TYR88       0.2619
    112  O         27.8720   21.7270    0.8160 O.2    88  TYR88      -0.2715
    113  CB        27.0950   18.7060    0.5420 C.3    88  TYR88       0.0574
    114  CG        28.3120   17.8180    0.5900 C.ar   88  TYR88      -0.0198
    115  CD1       28.2600   16.5780    1.2120 C.ar   88  TYR88      -0.0009
    116  CD2       29.5140   18.2180    0.0190 C.ar   88  TYR88      -0.0009
    117  CE1       29.3690   15.7580    1.2680 C.ar   88  TYR88       0.0417
    118  CE2       30.6330   17.4040    0.0670 C.ar   88  TYR88       0.0417
    119  CZ        30.5540   16.1750    0.6940 C.ar   88  TYR88       0.1957
    120  OH        31.6620   15.3610    0.7560 O.3    88  TYR88      -0.2866
    121  N         29.1090   20.6280    2.3370 N.am   89  MET89      -0.1977
    122  CA        30.1970   21.5920    2.3300 C.3    89  MET89       0.1605
    123  C         31.4180   21.0060    1.6350 C.2    89  MET89       0.2287
    124  O         32.0680   20.0930    2.1440 O.2    89  MET89      -0.2864
    125  CB        30.5520   21.9800    3.7640 C.3    89  MET89       0.0413
    126  CG        29.3440   22.4860    4.5320 C.3    89  MET89       0.0598
    127  SD        29.1480   24.2830    4.4700 S.3    89  MET89      -0.1393
    128  CE        29.1460   24.5920    2.6700 C.3    89  MET89       0.0692
    129  N         34.5350   20.4940    3.5990 N.3    92  GLY92      -0.1210
    130  CA        34.5590   19.3910    4.5430 C.3    92  GLY92       0.1956
    131  C         34.7010   19.8250    5.9890 C.2    92  GLY92       0.2612
    132  O         34.2770   20.9170    6.3670 O.2    92  GLY92      -0.2717
    133  N         35.3000   18.9640    6.8060 N.am   93  SER93      -0.1952
    134  CA        35.5060   19.2790    8.2140 C.3    93  SER93       0.1924
    135  C         36.7780   20.0910    8.4040 C.2    93  SER93       0.2314
    136  O         37.7110   20.0440    7.6010 O.2    93  SER93      -0.2863
    137  CB        35.5880   17.9970    9.0460 C.3    93  SER93       0.2116
    138  OG        36.7970   17.3020    8.7990 O.3    93  SER93      -0.2180
    139  N         25.1080   28.1870   21.8990 N.3   125  ILE125     -0.1245
    140  CA        24.7150   26.9150   22.4930 C.3   125  ILE125      0.1561
    141  C         24.6530   27.0100   24.0120 C.2   125  ILE125      0.2260
    142  O         23.7750   26.4270   24.6440 O.2   125  ILE125     -0.2867
    143  CB        25.7040   25.7970   22.1010 C.3   125  ILE125      0.0252
    144  CG1       25.5070   25.4360   20.6280 C.3   125  ILE125      0.0019
    145  CG2       25.5280   24.5910   23.0120 C.3   125  ILE125      0.0019
    146  CD1       26.4230   24.3450   20.1400 C.3   125  ILE125      0.0001
    147  N         22.3410   24.4710   26.2130 N.3   130  TYR130     -0.1227
    148  CA        22.7050   23.1280   25.7930 C.3   130  TYR130      0.1736
    149  C         24.2080   22.9770   25.9680 C.2   130  TYR130      0.2595
    150  O         24.8930   23.9380   26.3160 O.2   130  TYR130     -0.2718
    151  CB        22.3280   22.9110   24.3250 C.3   130  TYR130      0.0548
    152  CG        20.8380   22.8380   24.0800 C.ar  130  TYR130     -0.0200
    153  CD1       20.0910   23.9900   23.8700 C.ar  130  TYR130     -0.0009
    154  CD2       20.1740   21.6160   24.0830 C.ar  130  TYR130     -0.0009
    155  CE1       18.7260   23.9290   23.6730 C.ar  130  TYR130      0.0417
    156  CE2       18.8090   21.5460   23.8880 C.ar  130  TYR130      0.0417
    157  CZ        18.0910   22.7040   23.6850 C.ar  130  TYR130      0.1957
    158  OH        16.7320   22.6370   23.4960 O.3   130  TYR130     -0.2866
    159  N         24.7170   21.7720   25.7440 N.am  131  ILE131     -0.1966
    160  CA        26.1540   21.5740   25.6320 C.3   131  ILE131      0.1727
    161  C         26.4300   20.8010   24.3540 C.2   131  ILE131      0.2616
    162  O         25.4890   20.4190   23.6590 O.2   131  ILE131     -0.2715
    163  CB        26.7350   20.7740   26.8230 C.3   131  ILE131      0.0290
    164  CG1       26.1960   19.3460   26.8110 C.3   131  ILE131      0.0022
    165  CG2       26.3950   21.4630   28.1330 C.3   131  ILE131      0.0023
    166  CD1       26.8260   18.4640   27.8600 C.3   131  ILE131      0.0001
    167  N         27.7050   20.5770   24.0460 N.am  132  HIS132     -0.1959
    168  CA        28.0740   19.8570   22.8340 C.3   132  HIS132      0.1787
    169  C         28.4920   18.4210   23.1240 C.2   132  HIS132      0.2620
    170  O         27.9330   17.4800   22.5540 O.2   132  HIS132     -0.2715
    171  CB        29.2090   20.5770   22.1070 C.3   132  HIS132      0.0785
    172  CG        29.4160   20.0920   20.7090 C.ar  132  HIS132      0.0821
    173  ND1       30.0500   18.9030   20.4220 N.ar  132  HIS132     -0.2267
    174  CD2       29.0200   20.6040   19.5200 C.ar  132  HIS132      0.1154
    175  CE1       30.0340   18.7020   19.1160 C.ar  132  HIS132      0.1986
    176  NE2       29.4140   19.7190   18.5460 N.ar  132  HIS132     -0.2212
    177  N         29.4810   18.2700   24.0020 N.am  133  ARG133     -0.1977
    178  CA        29.9810   16.9630   24.4310 C.3   133  ARG133      0.1597
    179  C         31.1010   16.4110   23.5590 C.2   133  ARG133      0.2287
    180  O         31.8890   15.5970   24.0360 O.2   133  ARG133     -0.2864
    181  CB        28.8490   15.9300   24.5000 C.3   133  ARG133      0.0334
    182  CG        28.2970   15.7540   25.9010 C.3   133  ARG133      0.0492
    183  CD        27.2670   14.6350   26.0040 C.3   133  ARG133      0.2205
    184  NE        26.5530   14.6680   27.2810 N.pl3 133  ARG133     -0.0865
    185  CZ        26.8630   13.9200   28.3380 C.cat 133  ARG133      0.5346
    186  NH1       27.8810   13.0690   28.2750 N.pl3 133  ARG133      0.1354
    187  NH2       26.1600   14.0300   29.4610 N.pl3 133  ARG133      0.1354
    188  N         32.3540   22.0690   10.4360 N.3   141  LEU141     -0.1245
    189  CA        32.3340   22.1560    8.9800 C.3   141  LEU141      0.1561
    190  C         32.8130   23.5180    8.4840 C.2   141  LEU141      0.2260
    191  O         32.5460   24.5590    9.0890 O.2   141  LEU141     -0.2867
    192  CB        30.9250   21.8760    8.4530 C.3   141  LEU141      0.0270
    193  CG        30.6440   20.3740    8.5740 C.3   141  LEU141      0.0019
    194  CD1       29.1940   20.0810    8.2020 C.3   141  LEU141      0.0001
    195  CD2       31.6010   19.6090    7.6690 C.3   141  LEU141      0.0001
    196  N         29.3940   24.8140   13.3750 N.3   150  ILE150     -0.1231
    197  CA        29.4540   23.7850   14.4010 C.3   150  ILE150      0.1692
    198  C         28.4910   22.6580   14.0710 C.2   150  ILE150      0.2592
    199  O         27.3030   22.8860   13.8560 O.2   150  ILE150     -0.2718
    200  CB        29.0600   24.3410   15.7810 C.3   150  ILE150      0.0266
    201  CG1       30.0890   25.3740   16.2360 C.3   150  ILE150      0.0019
    202  CG2       28.9360   23.2080   16.7790 C.3   150  ILE150      0.0020
    203  CD1       29.7200   26.0720   17.5130 C.3   150  ILE150      0.0001
    204  N         29.0070   21.4370   14.0270 N.am  151  ALA151     -0.1966
    205  CA        28.1700   20.2790   13.7650 C.3   151  ALA151      0.1728
    206  C         28.3160   19.2720   14.8890 C.2   151  ALA151      0.2616
    207  O         29.2570   19.3300   15.6710 O.2   151  ALA151     -0.2715
    208  CB        28.5590   19.6440   12.4490 C.3   151  ALA151      0.0334
    209  N         27.3650   18.3530   14.9740 N.am  152  ASP152     -0.1957
    210  CA        27.5300   17.1620   15.7920 C.3   152  ASP152      0.1840
    211  C         27.1670   15.9410   14.9520 C.2   152  ASP152      0.2622
    212  O         25.9910   15.6510   14.7200 O.2   152  ASP152     -0.2715
    213  CB        26.6380   17.2330   17.0320 C.3   152  ASP152      0.1450
    214  CG        26.8060   16.0270   17.9320 C.2   152  ASP152      0.3671
    215  OD1       27.7820   15.2700   17.7390 O.co2 152  ASP152     -0.2456
    216  OD2       25.9620   15.8330   18.8320 O.co2 152  ASP152     -0.2456
    217  N         28.1930   15.2310   14.4920 N.am  153  PHE153     -0.1974
    218  CA        28.0060   14.1160   13.5760 C.3   153  PHE153      0.1639
    219  C         27.7000   12.8200   14.3100 C.2   153  PHE153      0.2290
    220  O         27.4920   11.7860   13.6810 O.2   153  PHE153     -0.2864
    221  CB        29.2540   13.9230   12.7190 C.3   153  PHE153      0.0560
    222  CG        29.5980   15.1100   11.8760 C.ar  153  PHE153     -0.0200
    223  CD1       30.9160   15.5040   11.7150 C.ar  153  PHE153     -0.0042
    224  CD2       28.6060   15.8320   11.2350 C.ar  153  PHE153     -0.0042
    225  CE1       31.2390   16.5970   10.9250 C.ar  153  PHE153     -0.0003
    226  CE2       28.9220   16.9250   10.4440 C.ar  153  PHE153     -0.0003
    227  CZ        30.2420   17.3090   10.2890 C.ar  153  PHE153     -0.0000
@<TRIPOS>BOND
     1   116   118   ar
     2   116   114   ar
     3   118   119   ar
     4   108   106   ar
     5   113   114    1
     6   113   110    1
     7   114   115   ar
     8   119   120    1
     9   119   117   ar
    10   112   111    2
    11   115   117   ar
    12   105   106    1
    13   105   104    1
    14   106   107   ar
    15     8     6    1
    16   111   110    1
    17   111   121   am
    18   123   124    2
    19   123   122    1
    20   110   109    1
    21   109   102   am
    22    27    25    1
    23   122   121    1
    24   122   125    1
    25     7     6    1
    26    16    17    1
    27   104   101    1
    28   128   127    1
    29     1     2    1
    30     6     5    1
    31   101   102    1
    32   101   100    1
    33   102   103    2
    34    25    26    1
    35    25    22    1
    36    17    18    1
    37    17    20    1
    38     2     5    1
    39     2     3    1
    40    96    95    2
    41   129   130    1
    42   125   126    1
    43    21    18   am
    44    21    22    1
    45    18    19    2
    46   100    95   am
    47    12    11    2
    48    95    94    1
    49    22    23    1
    50   127   126    1
    51   130   131    1
    52    11    10    1
    53     3     4    2
    54    24    23    2
    55    23    28   am
    56    94    93    1
    57    94    97    1
    58   131   132    2
    59   131   133   am
    60    10     9    1
    61    10    13    1
    62    14    13    1
    63    98    97    1
    64    28    29    1
    65    97    99    1
    66   133   134    1
    67    13    15    1
    68    88    87    2
    69    87    86    1
    70   136   135    2
    71    30    29    1
    72    30    31    2
    73    29    32    1
    74   195   193    1
    75    85    86    1
    76   194   193    1
    77   134   135    1
    78   134   137    1
    79    86    89    1
    80   192   193    1
    81   192   189    1
    82   190   189    1
    83   190   191    2
    84   138   137    1
    85   189   188    1
    86    32    33    1
    87    84    82    1
    88    89    91    1
    89    89    90    1
    90    33    34    1
    91   227   226   ar
    92   227   225   ar
    93   226   224   ar
    94    80    79    1
    95    80    81    2
    96    82    79    1
    97    82    83    1
    98    79    78    1
    99    90    92    1
   100   225   223   ar
   101    73    72    2
   102   224   222   ar
   103    34    35    1
   104    61    60    1
   105   223   222   ar
   106    78    72   am
   107   222   221    1
   108    72    71    1
   109   208   205    1
   110    35    36    1
   111   221   218    1
   112    60    59    1
   113    70    71    1
   114   196   197    1
   115    71    74    1
   116   218   219    1
   117   218   217    1
   118    58    59    1
   119    58    55    1
   120   220   219    2
   121   205   204    1
   122   205   206    1
   123   199   198    2
   124    57    56    2
   125   204   198   am
   126   198   197    1
   127    56    55    1
   128    74    75    1
   129    45    43   ar
   130   197   200    1
   131   217   211   am
   132    44    43   ar
   133   212   211    2
   134    55    54    1
   135    43    42    1
   136   206   209   am
   137   206   207    2
   138   211   210    1
   139   209   210    1
   140    42    41    1
   141   200   201    1
   142   200   202    1
   143   210   213    1
   144    39    40    2
   145    39    38    1
   146    75    76    1
   147    75    77    1
   148    65    64    2
   149    54    48   am
   150    64    63    1
   151    41    38    1
   152   201   203    1
   153    38    37    1
   154    48    49    2
   155    48    47    1
   156   213   214    1
   157    62    63    1
   158    63    66    1
   159    46    47    1
   160   215   214   ar
   161   214   216   ar
   162    66    67    1
   163    47    50    1
   164   176   175   ar
   165   176   174   ar
   166    50    51    1
   167   175   173   ar
   168    67    68    1
   169    67    69    1
   170   174   172   ar
   171   146   144    1
   172    51    52    1
   173    51    53    1
   174   173   172   ar
   175   144   143    1
   176   172   171    1
   177   139   140    1
   178   143   140    1
   179   143   145    1
   180   171   168    1
   181   140   141    1
   182   170   169    2
   183   168   169    1
   184   168   167    1
   185   169   177   am
   186   158   157    1
   187   179   180    2
   188   179   178    1
   189   162   161    2
   190   155   157   ar
   191   155   153   ar
   192   157   156   ar
   193   153   152   ar
   194   156   154   ar
   195   177   178    1
   196   141   142    2
   197   167   161   am
   198   152   154   ar
   199   152   151    1
   200   151   148    1
   201   161   160    1
   202   178   181    1
   203   181   182    1
   204   160   159    1
   205   160   163    1
   206   159   149   am
   207   148   149    1
   208   148   147    1
   209   182   183    1
   210   149   150    2
   211   183   184    1
   212   164   163    1
   213   164   166    1
   214   163   165    1
   215   184   185    2
   216   186   185    1
   217   185   187    1
