@<TRIPOS>MOLECULE
tmp/2pl3A00.pdb
 129 125 0 0 0
SMALL
GASTEIGER

@<TRIPOS>ATOM
      1  N        -20.0080  -22.9260   -4.1100 N.3    27  PHE27      -0.1241
      2  CA       -18.6580  -23.1640   -3.5880 C.3    27  PHE27       0.1605
      3  C        -17.8440  -24.0360   -4.5400 C.2    27  PHE27       0.2264
      4  O        -16.6450  -23.7780   -4.7340 O.2    27  PHE27      -0.2867
      5  CB       -18.6630  -23.8050   -2.1900 C.3    27  PHE27       0.0534
      6  CG       -18.9290  -22.8360   -1.0590 C.ar   27  PHE27      -0.0203
      7  CD1      -17.9160  -22.0280   -0.5640 C.ar   27  PHE27      -0.0042
      8  CD2      -20.1830  -22.7390   -0.5070 C.ar   27  PHE27      -0.0042
      9  CE1      -18.1530  -21.1130    0.4590 C.ar   27  PHE27      -0.0003
     10  CE2      -20.4450  -21.8740    0.5460 C.ar   27  PHE27      -0.0003
     11  CZ       -19.4090  -21.0570    1.0390 C.ar   27  PHE27      -0.0000
     12  N        -24.3280  -28.2790    4.9110 N.3    44  GLN44      -0.1231
     13  CA       -25.4090  -27.5490    4.1900 C.3    44  GLN44       0.1698
     14  C        -24.9700  -26.1930    3.6320 C.2    44  GLN44       0.2592
     15  O        -25.7490  -25.2250    3.6490 O.2    44  GLN44      -0.2718
     16  CB       -26.6650  -27.3010    5.0720 C.3    44  GLN44       0.0381
     17  CG       -26.9200  -28.2610    6.2120 C.3    44  GLN44       0.0905
     18  CD       -26.6870  -29.6460    5.7910 C.2    44  GLN44       0.2608
     19  OE1      -26.9320  -29.9780    4.6410 O.2    44  GLN44      -0.2717
     20  NE2      -26.1790  -30.4760    6.6940 N.am   44  GLN44      -0.0878
     21  N        -23.7340  -26.1000    3.1530 N.am   45  TYR45      -0.1962
     22  CA       -23.2800  -24.8510    2.5160 C.3    45  TYR45       0.1771
     23  C        -22.9760  -25.1280    1.0610 C.2    45  TYR45       0.2619
     24  O        -22.0240  -25.8330    0.7380 O.2    45  TYR45      -0.2715
     25  CB       -22.0190  -24.3110    3.1710 C.3    45  TYR45       0.0574
     26  CG       -22.1680  -23.7900    4.5880 C.ar   45  TYR45      -0.0198
     27  CD1      -21.4910  -24.4000    5.6480 C.ar   45  TYR45      -0.0009
     28  CD2      -22.9610  -22.6910    4.8640 C.ar   45  TYR45      -0.0009
     29  CE1      -21.6200  -23.9230    6.9340 C.ar   45  TYR45       0.0417
     30  CE2      -23.0960  -22.2140    6.1320 C.ar   45  TYR45       0.0417
     31  CZ       -22.4230  -22.8140    7.1610 C.ar   45  TYR45       0.1957
     32  OH       -22.5450  -22.2930    8.4220 O.3    45  TYR45      -0.2866
     33  N        -23.7670  -24.5650    0.1720 N.am   46  ARG46      -0.1963
     34  CA       -23.6340  -24.9130   -1.2330 C.3    46  ARG46       0.1729
     35  C        -23.4830  -23.7050   -2.1300 C.2    46  ARG46       0.2616
     36  O        -22.6180  -23.6860   -3.0170 O.2    46  ARG46      -0.2715
     37  CB       -24.8210  -25.7860   -1.6940 C.3    46  ARG46       0.0348
     38  CG       -24.4340  -26.6760   -2.8550 C.3    46  ARG46       0.0492
     39  CD       -25.5870  -27.2670   -3.5870 C.3    46  ARG46       0.2205
     40  NE       -26.1220  -26.3080   -4.5620 N.pl3  46  ARG46      -0.0865
     41  CZ       -27.3830  -25.9530   -4.5990 C.cat  46  ARG46       0.5346
     42  NH1      -28.2000  -26.4780   -3.7320 N.pl3  46  ARG46       0.1354
     43  NH2      -27.8370  -25.1000   -5.4760 N.pl3  46  ARG46       0.1354
     44  N        -24.3380  -22.7070   -1.9150 N.am   47  LEU47      -0.1977
     45  CA       -24.3090  -21.4730   -2.7100 C.3    47  LEU47       0.1596
     46  C        -23.5130  -20.4620   -1.9140 C.2    47  LEU47       0.2287
     47  O        -23.6550  -20.4270   -0.7090 O.2    47  LEU47      -0.2864
     48  CB       -25.7260  -20.9290   -2.9400 C.3    47  LEU47       0.0297
     49  CG       -26.7520  -21.8280   -3.6320 C.3    47  LEU47       0.0022
     50  CD1      -28.1480  -21.2260   -3.5870 C.3    47  LEU47       0.0001
     51  CD2      -26.2950  -22.0970   -5.0610 C.3    47  LEU47       0.0001
     52  N        -22.4560  -16.6760   -0.5300 N.3    49  THR49      -0.1218
     53  CA       -22.9620  -15.3230   -0.3430 C.3    49  THR49       0.1862
     54  C        -22.0780  -14.3420   -1.1380 C.2    49  THR49       0.2287
     55  O        -21.0150  -14.6860   -1.6390 O.2    49  THR49      -0.2866
     56  CB       -22.9820  -14.9240    1.1650 C.3    49  THR49       0.1770
     57  OG1      -21.6270  -14.7640    1.6340 O.3    49  THR49      -0.2211
     58  CG2      -23.7560  -15.9930    2.0120 C.3    49  THR49       0.0375
     59  N        -18.4830  -13.8540    0.3360 N.3    52  GLN52      -0.1245
     60  CA       -17.7440  -15.0700    0.0570 C.3    52  GLN52       0.1566
     61  C        -17.2990  -15.1050   -1.4320 C.2    52  GLN52       0.2260
     62  O        -16.1360  -15.3160   -1.7550 O.2    52  GLN52      -0.2867
     63  CB       -18.5980  -16.2750    0.4140 C.3    52  GLN52       0.0367
     64  CG       -18.7830  -16.4660    1.9140 C.3    52  GLN52       0.0905
     65  CD       -19.9810  -17.3190    2.2780 C.2    52  GLN52       0.2608
     66  OE1      -20.6440  -17.8740    1.4110 O.2    52  GLN52      -0.2717
     67  NE2      -20.2850  -17.3890    3.5590 N.am   52  GLN52      -0.0878
     68  N        -23.0900   -7.5160    9.4550 N.3    71  THR71      -0.1203
     69  CA       -23.4070   -8.7260   10.1790 C.3    71  THR71       0.1994
     70  C        -24.4830   -9.5360    9.4900 C.2    71  THR71       0.2618
     71  O        -25.5260   -8.9920    9.0860 O.2    71  THR71      -0.2717
     72  CB       -23.8670   -8.3420   11.5930 C.3    71  THR71       0.1784
     73  OG1      -22.7590   -7.6800   12.1950 O.3    71  THR71      -0.2211
     74  CG2      -24.3190   -9.6430   12.4680 C.3    71  THR71       0.0376
     75  N        -24.2700  -10.8360    9.4130 N.am   72  GLY72      -0.1942
     76  CA       -25.2270  -11.6970    8.7130 C.3    72  GLY72       0.2014
     77  C        -24.7980  -12.0140    7.2710 C.2    72  GLY72       0.2640
     78  O        -25.3940  -12.8660    6.6220 O.2    72  GLY72      -0.2714
     79  N        -23.7310  -11.3840    6.7840 N.am   73  SER73      -0.1935
     80  CA       -23.3040  -11.5260    5.3690 C.3    73  SER73       0.2055
     81  C        -22.6120  -12.8380    4.9870 C.2    73  SER73       0.2644
     82  O        -22.5780  -13.1900    3.8150 O.2    73  SER73      -0.2714
     83  CB       -22.3740  -10.3520    4.9960 C.3    73  SER73       0.2130
     84  OG       -23.0990   -9.1490    4.9720 O.3    73  SER73      -0.2179
     85  N        -22.0400  -13.5400    5.9490 N.am   74  GLY74      -0.1939
     86  CA       -21.2750  -14.7580    5.7030 C.3    74  GLY74       0.2014
     87  C        -19.7560  -14.5620    5.7360 C.2    74  GLY74       0.2639
     88  O        -18.9900  -15.2440    5.0000 O.2    74  GLY74      -0.2714
     89  N        -19.2830  -13.6640    6.5910 N.am   75  LYS75      -0.1963
     90  CA       -17.8430  -13.4350    6.6590 C.3    75  LYS75       0.1728
     91  C        -17.0250  -14.6520    7.1280 C.2    75  LYS75       0.2617
     92  O        -15.8620  -14.8240    6.6780 O.2    75  LYS75      -0.2715
     93  CB       -17.5270  -12.1700    7.4640 C.3    75  LYS75       0.0311
     94  CG       -18.0660  -10.8620    6.8180 C.3    75  LYS75       0.0038
     95  CD       -17.6720   -9.6060    7.6460 C.3    75  LYS75       0.0206
     96  CE       -18.3510   -9.4980    9.0110 C.3    75  LYS75       0.1093
     97  NZ       -19.8450   -9.3840    8.8910 N.3    75  LYS75      -0.1314
     98  N        -17.6090  -15.5140    7.9780 N.am   76  THR76      -0.1937
     99  CA       -16.8510  -16.6130    8.5690 C.3    76  THR76       0.2028
    100  C        -16.2510  -17.5650    7.5470 C.2    76  THR76       0.2642
    101  O        -15.0360  -17.8330    7.5610 O.2    76  THR76      -0.2714
    102  CB       -17.6730  -17.3990    9.6140 C.3    76  THR76       0.1808
    103  OG1      -18.3100  -16.4850   10.4790 O.3    76  THR76      -0.2208
    104  CG2      -16.7970  -18.3520   10.4450 C.3    76  THR76       0.0379
    105  N        -17.0800  -18.0350    6.6270 N.am   77  LEU77      -0.1977
    106  CA       -16.6040  -18.9340    5.5660 C.3    77  LEU77       0.1596
    107  C        -15.7410  -18.2340    4.5300 C.2    77  LEU77       0.2287
    108  O        -14.9590  -18.8650    3.8230 O.2    77  LEU77      -0.2864
    109  CB       -17.7910  -19.6110    4.8560 C.3    77  LEU77       0.0297
    110  CG       -18.5500  -20.7350    5.5830 C.3    77  LEU77       0.0022
    111  CD1      -19.7010  -21.2760    4.6930 C.3    77  LEU77       0.0001
    112  CD2      -17.6040  -21.8760    6.0050 C.3    77  LEU77       0.0001
    113  N        -10.9100  -11.6920   12.5370 N.3   176  ASP176     -0.1225
    114  CA       -12.3560  -11.8880   12.4700 C.3   176  ASP176      0.1805
    115  C        -13.0870  -10.7850   13.2770 C.2   176  ASP176      0.2597
    116  O        -12.8290  -10.5650   14.4730 O.2   176  ASP176     -0.2718
    117  CB       -12.5920  -13.3440   12.9560 C.3   176  ASP176      0.1424
    118  CG       -14.0560  -13.7470   13.1300 C.2   176  ASP176      0.3668
    119  OD1      -14.9060  -13.4030   12.2950 O.co2 176  ASP176     -0.2456
    120  OD2      -14.3280  -14.5000   14.1230 O.co2 176  ASP176     -0.2456
    121  N        -13.9930  -10.0700   12.6150 N.am  177  GLU177     -0.1979
    122  CA       -14.7460   -8.9880   13.2340 C.3   177  GLU177      0.1602
    123  C        -13.7660   -7.9080   13.7290 C.2   177  GLU177      0.2287
    124  O        -13.8110   -7.4310   14.8940 O.2   177  GLU177     -0.2864
    125  CB       -15.6670   -9.5030   14.3710 C.3   177  GLU177      0.0415
    126  CG       -16.6420  -10.6270   13.9860 C.3   177  GLU177      0.1163
    127  CD       -17.6180  -10.3020   12.8320 C.2   177  GLU177      0.3649
    128  OE1      -18.0220   -9.1240   12.6620 O.co2 177  GLU177     -0.2457
    129  OE2      -18.0060  -11.2720   12.0990 O.co2 177  GLU177     -0.2457
@<TRIPOS>BOND
     1    43    41    1
     2    51    49    1
     3     4     3    2
     4    41    40    2
     5    41    42    1
     6    40    39    1
     7     3     2    1
     8     1     2    1
     9    49    50    1
    10    49    48    1
    11     2     5    1
    12    39    38    1
    13    36    35    2
    14    48    45    1
    15    38    37    1
    16    45    44    1
    17    45    46    1
    18     5     6    1
    19    35    44   am
    20    35    34    1
    21    46    47    2
    22    62    61    2
    23    37    34    1
    24    55    54    2
    25    61    60    1
    26    34    33    1
    27    54    53    1
    28     6     7   ar
    29     6     8   ar
    30     7     9   ar
    31    52    53    1
    32     8    10   ar
    33    53    56    1
    34    60    59    1
    35    60    63    1
    36    33    23   am
    37    63    64    1
    38     9    11   ar
    39    10    11   ar
    40    24    23    2
    41    23    22    1
    42    56    57    1
    43    56    58    1
    44    66    65    2
    45    64    65    1
    46    65    67   am
    47    22    21    1
    48    22    25    1
    49    21    14   am
    50    25    26    1
    51    14    15    2
    52    14    13    1
    53    82    81    2
    54   108   107    2
    55    13    12    1
    56    13    16    1
    57   107   106    1
    58    26    28   ar
    59    26    27   ar
    60    19    18    2
    61   111   110    1
    62   109   106    1
    63   109   110    1
    64    28    30   ar
    65    84    83    1
    66    81    80    1
    67    81    85   am
    68    83    80    1
    69    88    87    2
    70    16    17    1
    71    80    79    1
    72   106   105    1
    73   110   112    1
    74    27    29   ar
    75    86    87    1
    76    86    85    1
    77    87    89   am
    78    18    17    1
    79    18    20   am
    80    30    31   ar
    81    89    90    1
    82    78    77    2
    83   105   100   am
    84    90    91    1
    85    90    93    1
    86    92    91    2
    87    79    77   am
    88    94    93    1
    89    94    95    1
    90    29    31   ar
    91    91    98   am
    92    31    32    1
    93    77    76    1
    94   100   101    2
    95   100    99    1
    96    95    96    1
    97    98    99    1
    98    99   102    1
    99    76    75    1
   100    97    96    1
   101    71    70    2
   102    75    70   am
   103    68    69    1
   104    70    69    1
   105   102   104    1
   106   102   103    1
   107    69    72    1
   108    72    73    1
   109    72    74    1
   110   129   127   ar
   111   119   118   ar
   112   114   113    1
   113   114   117    1
   114   114   115    1
   115   121   122    1
   116   121   115   am
   117   128   127   ar
   118   127   126    1
   119   117   118    1
   120   118   120   ar
   121   122   123    1
   122   122   125    1
   123   115   116    2
   124   123   124    2
   125   126   125    1
