@<TRIPOS>MOLECULE
tmp/2pljA00.pdb
 168 163 0 0 0
SMALL
GASTEIGER

@<TRIPOS>ATOM
      1  N         65.2030   68.9050    9.9780 N.3    58  ALA58      -0.1245
      2  CA        66.5880   69.2730   10.2570 C.3    58  ALA58       0.1562
      3  C         67.0400   68.5010   11.5130 C.2    58  ALA58       0.2260
      4  O         66.4720   68.6680   12.6310 O.2    58  ALA58      -0.2867
      5  CB        66.7210   70.8000   10.4700 C.3    58  ALA58       0.0290
      6  N         69.6950   68.8360   13.1430 N.3    60  LYS60      -0.1245
      7  CA        70.5190   69.7140   14.0580 C.3    60  LYS60       0.1561
      8  C         69.9500   69.8740   15.5040 C.2    60  LYS60       0.2260
      9  O         70.6560   69.6430   16.5140 O.2    60  LYS60      -0.2867
     10  CB        70.6310   71.1450   13.4550 C.3    60  LYS60       0.0271
     11  CG        71.5480   71.3800   12.2620 C.3    60  LYS60       0.0035
     12  CD        71.3700   72.8460   11.7920 C.3    60  LYS60       0.0206
     13  CE        70.6030   73.7210   12.8390 C.3    60  LYS60       0.1093
     14  NZ        69.6010   74.7400   12.3540 N.3    60  LYS60      -0.1314
     15  N         66.9370   66.8800    6.4070 N.3    79  ASP79      -0.1239
     16  CA        67.8640   67.9540    6.1290 C.3    79  ASP79       0.1674
     17  C         69.1100   67.6720    6.9690 C.2    79  ASP79       0.2266
     18  O         69.0330   67.6060    8.2040 O.2    79  ASP79      -0.2867
     19  CB        67.2350   69.2790    6.5270 C.3    79  ASP79       0.1410
     20  CG        68.2280   70.4200    6.5220 C.2    79  ASP79       0.3668
     21  OD1       69.1890   70.3380    5.7130 O.co2  79  ASP79      -0.2456
     22  OD2       68.0140   71.4070    7.2730 O.co2  79  ASP79      -0.2456
     23  N         72.5240   70.7130    3.5560 N.3   102  THR102     -0.1218
     24  CA        72.3130   72.1630    3.4660 C.3   102  THR102      0.1862
     25  C         73.3940   73.0050    4.1070 C.2   102  THR102      0.2287
     26  O         73.2130   74.2130    4.2700 O.2   102  THR102     -0.2866
     27  CB        70.9570   72.5340    4.0310 C.3   102  THR102      0.1770
     28  OG1       70.9040   72.0900    5.3790 O.3   102  THR102     -0.2211
     29  CG2       69.8060   71.9340    3.1420 C.3   102  THR102      0.0375
     30  N         71.5360   79.6650   -1.8540 N.3   145  ARG145     -0.1245
     31  CA        70.9160   80.2070   -0.6630 C.3   145  ARG145      0.1563
     32  C         71.0460   81.7290   -0.6910 C.2   145  ARG145      0.2260
     33  O         72.1620   82.2530   -0.8390 O.2   145  ARG145     -0.2867
     34  CB        71.5770   79.6600    0.6090 C.3   145  ARG145      0.0307
     35  CG        70.9770   80.3120    1.8710 C.3   145  ARG145      0.0489
     36  CD        71.3820   79.5340    3.1030 C.3   145  ARG145      0.2205
     37  NE        71.0290   80.2560    4.3190 N.pl3 145  ARG145     -0.0865
     38  CZ        71.2690   79.8170    5.5650 C.cat 145  ARG145      0.5346
     39  NH1       71.7940   78.6110    5.7890 N.pl3 145  ARG145      0.1354
     40  NH2       70.9570   80.5960    6.6110 N.pl3 145  ARG145      0.1354
     41  N         75.0840   83.4680    6.4460 N.3   152  PHE152     -0.1241
     42  CA        74.9680   82.7470    5.1670 C.3   152  PHE152      0.1605
     43  C         73.9710   83.4120    4.2330 C.2   152  PHE152      0.2264
     44  O         73.1170   84.2070    4.6620 O.2   152  PHE152     -0.2867
     45  CB        74.4750   81.3190    5.3610 C.3   152  PHE152      0.0534
     46  CG        75.3320   80.4780    6.2650 C.ar  152  PHE152     -0.0203
     47  CD1       76.6390   80.1240    5.9070 C.ar  152  PHE152     -0.0042
     48  CD2       74.7800   79.9670    7.4380 C.ar  152  PHE152     -0.0042
     49  CE1       77.4130   79.3090    6.7650 C.ar  152  PHE152     -0.0003
     50  CE2       75.5520   79.1520    8.3110 C.ar  152  PHE152     -0.0003
     51  CZ        76.8500   78.8200    7.9690 C.ar  152  PHE152     -0.0000
     52  N         66.7730   80.8710    4.7500 N.3   179  HIS179     -0.1241
     53  CA        66.3950   80.5050    6.1390 C.3   179  HIS179      0.1621
     54  C         66.2640   81.8120    6.8760 C.2   179  HIS179      0.2264
     55  O         67.2520   82.5580    7.0070 O.2   179  HIS179     -0.2867
     56  CB        67.4350   79.5860    6.7940 C.3   179  HIS179      0.0745
     57  CG        67.0290   79.1250    8.1630 C.ar  179  HIS179      0.0817
     58  ND1       67.6090   79.5920    9.3190 N.ar  179  HIS179     -0.2268
     59  CD2       66.0950   78.2280    8.5470 C.ar  179  HIS179      0.1154
     60  CE1       67.0490   79.0040   10.3660 C.ar  179  HIS179      0.1986
     61  NE2       66.1280   78.1630    9.9220 N.ar  179  HIS179     -0.2212
     62  N         65.8160   81.1520   13.3070 N.3   182  SER182     -0.1202
     63  CA        65.0920   80.2210   14.1820 C.3   182  SER182      0.2020
     64  C         64.0940   80.9710   15.1000 C.2   182  SER182      0.2618
     65  O         64.3280   82.1540   15.4680 O.2   182  SER182     -0.2717
     66  CB        66.0950   79.3510   14.9680 C.3   182  SER182      0.2103
     67  OG        65.4510   78.2260   15.5740 O.3   182  SER182     -0.2182
     68  N         62.9810   80.2930   15.4440 N.am  183  GLN183     -0.1979
     69  CA        61.8990   80.8590   16.2830 C.3   183  GLN183      0.1601
     70  C         61.4550   82.2130   15.7090 C.2   183  GLN183      0.2287
     71  O         61.4750   83.2310   16.3830 O.2   183  GLN183     -0.2864
     72  CB        62.3360   80.9510   17.7590 C.3   183  GLN183      0.0394
     73  CG        61.2350   81.3140   18.7670 C.3   183  GLN183      0.0908
     74  CD        60.1760   80.2190   18.9980 C.2   183  GLN183      0.2608
     75  OE1       60.2190   79.1210   18.4160 O.2   183  GLN183     -0.2717
     76  NE2       59.2420   80.5170   19.8990 N.am  183  GLN183     -0.0878
     77  N         63.8350   76.6670    7.6480 N.3   219  GLY219     -0.1210
     78  CA        63.2120   76.3390    8.9310 C.3   219  GLY219      0.1956
     79  C         62.6530   77.5680    9.6200 C.2   219  GLY219      0.2612
     80  O         62.3220   78.5780    8.9840 O.2   219  GLY219     -0.2717
     81  N         62.5370   77.4650   10.9430 N.am  220  GLY220     -0.1942
     82  CA        62.2540   78.6660   11.7630 C.3   220  GLY220      0.2014
     83  C         60.8460   78.8010   12.3070 C.2   220  GLY220      0.2638
     84  O         60.5370   79.7680   12.9970 O.2   220  GLY220     -0.2714
     85  N         59.9920   77.8330   12.0010 N.am  221  PHE221     -0.1973
     86  CA        58.6110   77.8420   12.4740 C.3   221  PHE221      0.1639
     87  C         58.6680   77.7750   13.9860 C.2   221  PHE221      0.2290
     88  O         59.4510   76.9970   14.5480 O.2   221  PHE221     -0.2864
     89  CB        57.8550   76.6340   11.9000 C.3   221  PHE221      0.0560
     90  CG        58.0170   76.5090   10.4100 C.ar  221  PHE221     -0.0200
     91  CD1       57.3290   77.3710    9.5450 C.ar  221  PHE221     -0.0042
     92  CD2       58.9580   75.6140    9.8780 C.ar  221  PHE221     -0.0042
     93  CE1       57.5230   77.2720    8.1520 C.ar  221  PHE221     -0.0003
     94  CE2       59.1550   75.5140    8.4920 C.ar  221  PHE221     -0.0003
     95  CZ        58.4290   76.3530    7.6270 C.ar  221  PHE221     -0.0000
     96  N         62.5360   73.0550    5.8350 N.3   255  GLU255     -0.1231
     97  CA        63.5710   72.4130    6.6660 C.3   255  GLU255      0.1684
     98  C         63.2330   72.5950    8.1620 C.2   255  GLU255      0.2434
     99  O         64.0590   73.1450    8.9330 O.2   255  GLU255     -0.2733
    100  CB        64.9510   73.0450    6.3890 C.3   255  GLU255      0.0402
    101  CG        65.4940   72.8740    4.9620 C.3   255  GLU255      0.1161
    102  CD        66.6070   73.8790    4.6110 C.2   255  GLU255      0.3649
    103  OE1       67.1540   73.7900    3.4870 O.co2 255  GLU255     -0.2457
    104  OE2       66.9670   74.7510    5.4440 O.co2 255  GLU255     -0.2457
    105  N         62.0320   72.1500    8.5880 N.am  256  PRO256     -0.2718
    106  CA        61.6510   72.4190    9.9710 C.3   256  PRO256      0.1535
    107  C         62.5280   71.5920   10.9310 C.2   256  PRO256      0.2599
    108  O         62.8150   70.4090   10.6640 O.2   256  PRO256     -0.2715
    109  CB        60.1830   71.9590   10.0360 C.3   256  PRO256      0.0310
    110  CG        60.0900   70.8370    8.9570 C.3   256  PRO256      0.0237
    111  CD        61.0290   71.3400    7.8590 C.3   256  PRO256      0.0939
    112  N         62.9670   72.2240   12.0230 N.am  257  GLY257     -0.1941
    113  CA        63.6660   71.5030   13.0960 C.3   257  GLY257      0.2014
    114  C         62.8780   71.6320   14.3830 C.2   257  GLY257      0.2639
    115  O         62.1110   70.7120   14.7680 O.2   257  GLY257     -0.2714
    116  N         63.0420   72.7980   15.0160 N.am  258  ARG258     -0.1963
    117  CA        62.4720   73.0640   16.3320 C.3   258  ARG258      0.1729
    118  C         60.9860   72.7110   16.4050 C.2   258  ARG258      0.2616
    119  O         60.5170   72.1670   17.4040 O.2   258  ARG258     -0.2715
    120  CB        62.6540   74.5460   16.6680 C.3   258  ARG258      0.0348
    121  CG        62.1650   74.9350   18.0700 C.3   258  ARG258      0.0492
    122  CD        62.1720   76.4870   18.2560 C.3   258  ARG258      0.2205
    123  NE        63.4540   77.1230   17.9220 N.pl3 258  ARG258     -0.0865
    124  CZ        64.4490   77.3310   18.7980 C.cat 258  ARG258      0.5346
    125  NH1       64.3420   76.9330   20.0800 N.pl3 258  ARG258      0.1354
    126  NH2       65.5610   77.9480   18.3950 N.pl3 258  ARG258      0.1354
    127  N         60.2320   73.0520   15.3460 N.am  259  PHE259     -0.1974
    128  CA        58.7830   72.8600   15.4560 C.3   259  PHE259      0.1639
    129  C         58.4250   71.3920   15.6910 C.2   259  PHE259      0.2290
    130  O         57.5070   71.0670   16.4320 O.2   259  PHE259     -0.2864
    131  CB        58.0730   73.3970   14.1930 C.3   259  PHE259      0.0560
    132  CG        56.5680   73.3680   14.3140 C.ar  259  PHE259     -0.0200
    133  CD1       55.8760   74.4330   14.9140 C.ar  259  PHE259     -0.0042
    134  CD2       55.8470   72.2350   13.8930 C.ar  259  PHE259     -0.0042
    135  CE1       54.4870   74.3830   15.0740 C.ar  259  PHE259     -0.0003
    136  CE2       54.4450   72.1700   14.0160 C.ar  259  PHE259     -0.0003
    137  CZ        53.7570   73.2410   14.6060 C.ar  259  PHE259     -0.0000
    138  N         73.2020   79.1190   24.4610 N.3   298  PHE298     -0.1227
    139  CA        73.4120   79.1350   23.0130 C.3   298  PHE298      0.1736
    140  C         72.1560   79.5090   22.2140 C.2   298  PHE298      0.2595
    141  O         72.2670   79.9080   21.0280 O.2   298  PHE298     -0.2718
    142  CB        73.8440   77.7480   22.5520 C.3   298  PHE298      0.0547
    143  CG        75.2520   77.3450   22.9890 C.ar  298  PHE298     -0.0202
    144  CD1       76.3610   78.0030   22.4270 C.ar  298  PHE298     -0.0042
    145  CD2       75.4600   76.2630   23.8720 C.ar  298  PHE298     -0.0042
    146  CE1       77.6850   77.6440   22.7720 C.ar  298  PHE298     -0.0003
    147  CE2       76.7860   75.8570   24.2240 C.ar  298  PHE298     -0.0003
    148  CZ        77.9070   76.5620   23.6520 C.ar  298  PHE298     -0.0000
    149  N         70.9810   79.3350   22.8200 N.am  299  ASP299     -0.1974
    150  CA        69.6900   79.5020   22.0910 C.3   299  ASP299      0.1709
    151  C         68.8410   80.6170   22.6880 C.2   299  ASP299      0.2293
    152  O         67.6620   80.7550   22.3250 O.2   299  ASP299     -0.2864
    153  CB        68.8950   78.1770   22.1400 C.3   299  ASP299      0.1436
    154  CG        67.6860   78.1440   21.1720 C.2   299  ASP299      0.3671
    155  OD1       67.8340   78.5010   19.9580 O.co2 299  ASP299     -0.2456
    156  OD2       66.5930   77.7110   21.6410 O.co2 299  ASP299     -0.2456
    157  N         67.6390   72.0060   20.5740 N.3   353  TYR353     -0.1241
    158  CA        68.8250   72.8060   20.9870 C.3   353  TYR353      0.1605
    159  C         68.9710   72.7810   22.5170 C.2   353  TYR353      0.2264
    160  O         69.1350   73.8300   23.1710 O.2   353  TYR353     -0.2867
    161  CB        68.7560   74.2500   20.4310 C.3   353  TYR353      0.0534
    162  CG        68.4050   74.2880   18.9550 C.ar  353  TYR353     -0.0201
    163  CD1       69.3270   73.8630   17.9870 C.ar  353  TYR353     -0.0009
    164  CD2       67.1290   74.7250   18.5300 C.ar  353  TYR353     -0.0009
    165  CE1       69.0100   73.9010   16.6320 C.ar  353  TYR353      0.0417
    166  CE2       66.7860   74.7720   17.1540 C.ar  353  TYR353      0.0417
    167  CZ        67.7270   74.3220   16.2160 C.ar  353  TYR353      0.1957
    168  OH        67.4250   74.3410   14.8880 O.3   353  TYR353     -0.2866
@<TRIPOS>BOND
     1    30    31    1
     2    33    32    2
     3    32    31    1
     4    31    34    1
     5    34    35    1
     6    35    36    1
     7    36    37    1
     8    29    27    1
     9    24    23    1
    10    24    27    1
    11    24    25    1
    12   103   102   ar
    13    27    28    1
    14    25    26    2
    15    43    44    2
    16    43    42    1
    17    37    38    2
    18   102   101    1
    19   102   104   ar
    20    52    53    1
    21   101   100    1
    22    42    45    1
    23    42    41    1
    24    45    46    1
    25    38    39    1
    26    38    40    1
    27    21    20   ar
    28    96    97    1
    29    47    46   ar
    30    47    49   ar
    31    16    15    1
    32    16    19    1
    33    16    17    1
    34    53    56    1
    35    53    54    1
    36    46    48   ar
    37   100    97    1
    38    20    19    1
    39    20    22   ar
    40    97    98    1
    41    49    51   ar
    42    56    57    1
    43    54    55    2
    44    17    18    2
    45    48    50   ar
    46    95    93   ar
    47    95    94   ar
    48    77    78    1
    49   111   105    1
    50   111   110    1
    51    51    50   ar
    52    93    91   ar
    53    98   105   am
    54    98    99    2
    55    57    59   ar
    56    57    58   ar
    57    94    92   ar
    58    59    61   ar
    59   105   106    1
    60    78    79    1
    61   110   109    1
    62    80    79    2
    63    58    60   ar
    64    91    90   ar
    65    79    81   am
    66    92    90   ar
    67    61    60   ar
    68   106   109    1
    69   106   107    1
    70     1     2    1
    71     2     5    1
    72     2     3    1
    73    90    89    1
    74   108   107    2
    75   107   112   am
    76    81    82    1
    77     3     4    2
    78    82    83    1
    79    12    11    1
    80    12    13    1
    81    89    86    1
    82    85    83   am
    83    85    86    1
    84   112   113    1
    85    11    10    1
    86    83    84    2
    87    14    13    1
    88    86    87    1
    89   113   114    1
    90     6     7    1
    91    62    63    1
    92    10     7    1
    93   134   136   ar
    94   134   132   ar
    95    87    88    2
    96   136   137   ar
    97     7     8    1
    98    63    66    1
    99    63    64    1
   100   131   132    1
   101   131   128    1
   102   132   133   ar
   103   114   115    2
   104   114   116   am
   105   137   135   ar
   106   168   167    1
   107   133   135   ar
   108    66    67    1
   109   116   117    1
   110    64    68   am
   111    64    65    2
   112   127   128    1
   113   127   118   am
   114    68    69    1
   115   128   129    1
   116     8     9    2
   117   129   130    2
   118    70    69    1
   119    70    71    2
   120   167   165   ar
   121   167   166   ar
   122    69    72    1
   123   117   118    1
   124   117   120    1
   125   118   119    2
   126   165   163   ar
   127   120   121    1
   128   166   164   ar
   129    72    73    1
   130   123   122    1
   131   123   124    2
   132   163   162   ar
   133   121   122    1
   134   126   124    1
   135    75    74    2
   136   164   162   ar
   137    73    74    1
   138   124   125    1
   139   162   161    1
   140    74    76   am
   141   155   154   ar
   142   161   158    1
   143   157   158    1
   144   158   159    1
   145   141   140    2
   146   154   156   ar
   147   154   153    1
   148   150   153    1
   149   150   151    1
   150   150   149    1
   151   140   149   am
   152   140   139    1
   153   152   151    2
   154   144   146   ar
   155   144   143   ar
   156   159   160    2
   157   142   143    1
   158   142   139    1
   159   146   148   ar
   160   143   145   ar
   161   139   138    1
   162   148   147   ar
   163   145   147   ar
