@<TRIPOS>MOLECULE
tmp/2plkA00.pdb
 182 178 0 0 0
SMALL
GASTEIGER

@<TRIPOS>ATOM
      1  N         69.9760   68.9120    5.0750 N.3    54  ALA54      -0.1245
      2  CA        71.2520   69.3070    5.6360 C.3    54  ALA54       0.1562
      3  C         71.5080   68.5170    6.9300 C.2    54  ALA54       0.2260
      4  O         70.8260   68.6960    7.9350 O.2    54  ALA54      -0.2867
      5  CB        71.2860   70.8480    5.9090 C.3    54  ALA54       0.0290
      6  N         73.9890   68.8980    8.9800 N.3    56  LYS56      -0.1231
      7  CA        74.6260   69.7850   10.0360 C.3    56  LYS56       0.1678
      8  C         73.8760   69.9030   11.3830 C.2    56  LYS56       0.2434
      9  O         74.5040   69.7080   12.4540 O.2    56  LYS56      -0.2733
     10  CB        74.8480   71.2360    9.5500 C.3    56  LYS56       0.0284
     11  CG        75.6320   71.5210    8.2900 C.3    56  LYS56       0.0035
     12  CD        75.8270   73.1010    8.0840 C.3    56  LYS56       0.0206
     13  CE        76.5060   73.7580    9.3170 C.3    56  LYS56       0.1093
     14  NZ        77.0690   75.1740    9.1810 N.3    56  LYS56      -0.1314
     15  N         72.5880   70.3300   11.3450 N.am   57  PRO57      -0.2729
     16  CA        71.7780   70.5060   12.5460 C.3    57  PRO57       0.1401
     17  C         71.5440   69.2660   13.3690 C.2    57  PRO57       0.2269
     18  O         71.4920   69.3670   14.5930 O.2    57  PRO57      -0.2865
     19  CB        70.4380   71.0340   12.0090 C.3    57  PRO57       0.0296
     20  CG        70.4230   70.6530   10.5670 C.3    57  PRO57       0.0237
     21  CD        71.8440   70.7870   10.1540 C.3    57  PRO57       0.0939
     22  N         72.2740   66.9460    1.9700 N.3    75  ASP75      -0.1239
     23  CA        73.2060   68.0360    1.7970 C.3    75  ASP75       0.1674
     24  C         74.3560   67.8180    2.7740 C.2    75  ASP75       0.2266
     25  O         74.1460   67.7800    3.9970 O.2    75  ASP75      -0.2867
     26  CB        72.4970   69.3750    1.9940 C.3    75  ASP75       0.1410
     27  CG        73.4580   70.5170    2.2150 C.2    75  ASP75       0.3668
     28  OD1       74.5400   70.5030    1.6010 O.co2  75  ASP75      -0.2456
     29  OD2       73.1330   71.4520    2.9730 O.co2  75  ASP75      -0.2456
     30  N         78.0900   71.0030   -0.0920 N.3    98  THR98      -0.1218
     31  CA        77.8260   72.4360   -0.2250 C.3    98  THR98       0.1862
     32  C         78.7750   73.3140    0.5780 C.2    98  THR98       0.2287
     33  O         78.5250   74.5180    0.7080 O.2    98  THR98      -0.2866
     34  CB        76.3680   72.7680    0.1480 C.3    98  THR98       0.1770
     35  OG1       76.0980   72.3130    1.4910 O.3    98  THR98      -0.2211
     36  CG2       75.4070   72.0610   -0.8170 C.3    98  THR98       0.0375
     37  N         81.6330   75.6100    0.8240 N.3   100  PRO100     -0.2116
     38  CA        82.3270   76.4270   -0.1820 C.3   100  PRO100      0.1372
     39  C         83.8360   76.4300   -0.1410 C.2   100  PRO100      0.2244
     40  O         84.4290   76.8410   -1.1210 O.2   100  PRO100     -0.2868
     41  CB        81.7850   77.8490    0.0820 C.3   100  PRO100      0.0268
     42  CG        80.4800   77.6340    0.8860 C.3   100  PRO100      0.0207
     43  CD        80.8310   76.4460    1.7630 C.3   100  PRO100      0.0892
     44  N         77.7400   79.8950   -5.4930 N.3   141  ARG141     -0.1245
     45  CA        76.9740   80.4180   -4.3700 C.3   141  ARG141      0.1563
     46  C         77.0890   81.9260   -4.2940 C.2   141  ARG141      0.2260
     47  O         78.1910   82.4530   -4.2060 O.2   141  ARG141     -0.2867
     48  CB        77.4380   79.8060   -3.0460 C.3   141  ARG141      0.0307
     49  CG        76.7240   80.4280   -1.8490 C.3   141  ARG141      0.0489
     50  CD        77.0350   79.7320   -0.5730 C.3   141  ARG141      0.2205
     51  NE        76.4740   80.4670    0.5620 N.pl3 141  ARG141     -0.0865
     52  CZ        76.4450   79.9960    1.8050 C.cat 141  ARG141      0.5346
     53  NH1       76.9300   78.7870    2.0590 N.pl3 141  ARG141      0.1354
     54  NH2       75.9470   80.7360    2.7790 N.pl3 141  ARG141      0.1354
     55  N         80.0560   83.6620    3.2720 N.3   147  PHE147     -0.1241
     56  CA        80.1470   82.9630    1.9950 C.3   147  PHE147      0.1605
     57  C         79.2630   83.6270    0.9500 C.2   147  PHE147      0.2264
     58  O         78.2810   84.3080    1.2800 O.2   147  PHE147     -0.2867
     59  CB        79.6540   81.5200    2.1010 C.3   147  PHE147      0.0534
     60  CG        80.3620   80.6810    3.1130 C.ar  147  PHE147     -0.0203
     61  CD1       81.6890   80.2920    2.9260 C.ar  147  PHE147     -0.0042
     62  CD2       79.6810   80.2280    4.2320 C.ar  147  PHE147     -0.0042
     63  CE1       82.3180   79.4950    3.8530 C.ar  147  PHE147     -0.0003
     64  CE2       80.3010   79.4190    5.1540 C.ar  147  PHE147     -0.0003
     65  CZ        81.6290   79.0580    4.9720 C.ar  147  PHE147     -0.0000
     66  N         72.2620   80.8090    0.4270 N.3   174  HIS174     -0.1241
     67  CA        71.6000   80.5340    1.7050 C.3   174  HIS174      0.1621
     68  C         71.2470   81.8660    2.3740 C.2   174  HIS174      0.2264
     69  O         72.1500   82.6340    2.6880 O.2   174  HIS174     -0.2867
     70  CB        72.4770   79.6870    2.6270 C.3   174  HIS174      0.0745
     71  CG        71.7220   79.0840    3.7690 C.ar  174  HIS174      0.0817
     72  ND1       71.4160   79.7880    4.9100 N.ar  174  HIS174     -0.2268
     73  CD2       71.1850   77.8560    3.9360 C.ar  174  HIS174      0.1154
     74  CE1       70.7330   79.0170    5.7330 C.ar  174  HIS174      0.1986
     75  NE2       70.5930   77.8330    5.1750 N.ar  174  HIS174     -0.2212
     76  N         69.7270   81.1040    8.6190 N.3   177  SER177     -0.1202
     77  CA        68.9300   80.1320    9.3640 C.3   177  SER177      0.2020
     78  C         67.7950   80.8550   10.1180 C.2   177  SER177      0.2618
     79  O         67.9820   82.0060   10.5950 O.2   177  SER177     -0.2717
     80  CB        69.8430   79.3910   10.3440 C.3   177  SER177      0.2103
     81  OG        69.4140   78.0520   10.5770 O.3   177  SER177     -0.2182
     82  N         66.6290   80.2010   10.2170 N.am  178  GLN178     -0.1979
     83  CA        65.4460   80.7920   10.8770 C.3   178  GLN178      0.1601
     84  C         65.0850   82.1450   10.2420 C.2   178  GLN178      0.2287
     85  O         64.9860   83.1920   10.8990 O.2   178  GLN178     -0.2864
     86  CB        65.6720   80.9170   12.3900 C.3   178  GLN178      0.0394
     87  CG        64.4270   81.2880   13.2400 C.3   178  GLN178      0.0908
     88  CD        63.4250   80.1430   13.3830 C.2   178  GLN178      0.2608
     89  OE1       63.6390   79.0410   12.8770 O.2   178  GLN178     -0.2717
     90  NE2       62.3180   80.4140   14.0630 N.am  178  GLN178     -0.0878
     91  N         68.7270   76.6160    2.8210 N.3   214  GLY214     -0.1210
     92  CA        67.7980   76.3160    3.9220 C.3   214  GLY214      0.1956
     93  C         67.2490   77.5780    4.5290 C.2   214  GLY214      0.2612
     94  O         67.0350   78.6040    3.8220 O.2   214  GLY214     -0.2717
     95  N         67.0150   77.5340    5.8460 N.am  215  GLY215     -0.1942
     96  CA        66.5480   78.7030    6.5950 C.3   215  GLY215      0.2014
     97  C         65.0690   78.7980    6.9310 C.2   215  GLY215      0.2638
     98  O         64.6630   79.7500    7.5830 O.2   215  GLY215     -0.2714
     99  N         64.2750   77.8310    6.4330 N.am  216  PHE216     -0.1973
    100  CA        62.8340   77.6960    6.6990 C.3   216  PHE216      0.1639
    101  C         62.5990   77.6610    8.2120 C.2   216  PHE216      0.2290
    102  O         63.3030   76.9590    8.9320 O.2   216  PHE216     -0.2864
    103  CB        62.2490   76.4560    5.9740 C.3   216  PHE216      0.0560
    104  CG        62.6780   76.3710    4.5290 C.ar  216  PHE216     -0.0200
    105  CD1       62.0670   77.1800    3.5610 C.ar  216  PHE216     -0.0042
    106  CD2       63.7350   75.5590    4.1510 C.ar  216  PHE216     -0.0042
    107  CE1       62.4910   77.1550    2.2450 C.ar  216  PHE216     -0.0003
    108  CE2       64.1720   75.5300    2.8140 C.ar  216  PHE216     -0.0003
    109  CZ        63.5690   76.3300    1.8870 C.ar  216  PHE216     -0.0000
    110  N         67.8820   73.1660    0.6620 N.3   250  GLU250     -0.1231
    111  CA        68.7640   72.4860    1.6310 C.3   250  GLU250      0.1684
    112  C         68.1760   72.5990    3.0610 C.2   250  GLU250      0.2434
    113  O         68.8270   73.0800    3.9980 O.2   250  GLU250     -0.2733
    114  CB        70.1630   73.0760    1.5700 C.3   250  GLU250      0.0402
    115  CG        70.9410   72.9450    0.2120 C.3   250  GLU250      0.1161
    116  CD        72.0840   73.9350    0.1040 C.2   250  GLU250      0.3649
    117  OE1       72.2620   74.7390    1.0510 O.co2 250  GLU250     -0.2457
    118  OE2       72.8530   73.9170   -0.9040 O.co2 250  GLU250     -0.2457
    119  N         66.9500   72.1180    3.2470 N.am  251  PRO251     -0.2718
    120  CA        66.3860   72.2530    4.5840 C.3   251  PRO251      0.1535
    121  C         67.1660   71.4760    5.6760 C.2   251  PRO251      0.2599
    122  O         67.4680   70.2970    5.4800 O.2   251  PRO251     -0.2715
    123  CB        65.0050   71.6400    4.4270 C.3   251  PRO251      0.0310
    124  CG        65.1110   70.6880    3.2230 C.3   251  PRO251      0.0237
    125  CD        66.0660   71.3670    2.3310 C.3   251  PRO251      0.0939
    126  N         67.4810   72.1300    6.8060 N.am  252  GLY252     -0.1941
    127  CA        67.9650   71.3900    7.9840 C.3   252  GLY252      0.2014
    128  C         66.9500   71.4900    9.1130 C.2   252  GLY252      0.2639
    129  O         66.1330   70.5850    9.3260 O.2   252  GLY252     -0.2714
    130  N         67.0140   72.6190    9.8180 N.am  253  ARG253     -0.1963
    131  CA        66.2260   72.9250   11.0240 C.3   253  ARG253      0.1729
    132  C         64.7330   72.6070   10.9510 C.2   253  ARG253      0.2616
    133  O         64.1540   72.0320   11.9000 O.2   253  ARG253     -0.2715
    134  CB        66.4410   74.3990   11.4230 C.3   253  ARG253      0.0348
    135  CG        65.6730   74.8480   12.6750 C.3   253  ARG253      0.0492
    136  CD        65.5050   76.3710   12.7370 C.3   253  ARG253      0.2205
    137  NE        66.7880   77.0990   12.6600 N.pl3 253  ARG253     -0.0865
    138  CZ        67.5980   77.3590   13.6850 C.cat 253  ARG253      0.5346
    139  NH1       67.2940   76.9350   14.9170 N.pl3 253  ARG253      0.1354
    140  NH2       68.7350   78.0400   13.4820 N.pl3 253  ARG253      0.1354
    141  N         64.0980   72.9640    9.8340 N.am  254  PHE254     -0.1974
    142  CA        62.6750   72.7190    9.6710 C.3   254  PHE254      0.1639
    143  C         62.2720   71.2430    9.7920 C.2   254  PHE254      0.2290
    144  O         61.1910   70.9060   10.2680 O.2   254  PHE254     -0.2864
    145  CB        62.1820   73.2330    8.3170 C.3   254  PHE254      0.0560
    146  CG        60.6900   73.1970    8.1910 C.ar  254  PHE254     -0.0200
    147  CD1       59.9130   74.2720    8.6420 C.ar  254  PHE254     -0.0042
    148  CD2       60.0440   72.0530    7.6960 C.ar  254  PHE254     -0.0042
    149  CE1       58.5090   74.2100    8.5170 C.ar  254  PHE254     -0.0003
    150  CE2       58.6530   71.9850    7.5980 C.ar  254  PHE254     -0.0003
    151  CZ        57.8890   73.0660    8.0290 C.ar  254  PHE254     -0.0000
    152  N         75.4580   79.1400   20.7020 N.3   293  PHE293     -0.1227
    153  CA        75.8820   79.1800   19.2870 C.3   293  PHE293      0.1736
    154  C         74.7800   79.5220   18.2970 C.2   293  PHE293      0.2595
    155  O         75.0820   79.9140   17.1580 O.2   293  PHE293     -0.2718
    156  CB        76.4460   77.8230   18.8540 C.3   293  PHE293      0.0547
    157  CG        77.7340   77.4550   19.5070 C.ar  293  PHE293     -0.0202
    158  CD1       78.9130   78.1730   19.2260 C.ar  293  PHE293     -0.0042
    159  CD2       77.7910   76.3540   20.3630 C.ar  293  PHE293     -0.0042
    160  CE1       80.1470   77.8060   19.8070 C.ar  293  PHE293     -0.0003
    161  CE2       79.0130   75.9720   20.9710 C.ar  293  PHE293     -0.0003
    162  CZ        80.2010   76.7020   20.6940 C.ar  293  PHE293     -0.0000
    163  N         73.5220   79.3300   18.7080 N.am  294  ASP294     -0.1974
    164  CA        72.3660   79.5070   17.8250 C.3   294  ASP294      0.1709
    165  C         71.4640   80.6410   18.3180 C.2   294  ASP294      0.2293
    166  O         70.3240   80.7780   17.8600 O.2   294  ASP294     -0.2864
    167  CB        71.5750   78.1860   17.7090 C.3   294  ASP294      0.1436
    168  CG        70.5380   78.1900   16.5870 C.2   294  ASP294      0.3671
    169  OD1       70.8780   78.5230   15.4490 O.co2 294  ASP294     -0.2456
    170  OD2       69.3730   77.8180   16.8180 O.co2 294  ASP294     -0.2456
    171  N         70.6500   72.0860   15.9230 N.3   348  TYR348     -0.1241
    172  CA        71.7680   72.8550   16.5120 C.3   348  TYR348      0.1605
    173  C         71.8000   72.7700   18.0430 C.2   348  TYR348      0.2264
    174  O         71.9620   73.7810   18.7610 O.2   348  TYR348     -0.2867
    175  CB        71.7520   74.3130   16.0110 C.3   348  TYR348      0.0534
    176  CG        71.6240   74.3880   14.5020 C.ar  348  TYR348     -0.0201
    177  CD1       72.7140   74.0340   13.6780 C.ar  348  TYR348     -0.0009
    178  CD2       70.4190   74.7540   13.8910 C.ar  348  TYR348     -0.0009
    179  CE1       72.6220   74.0880   12.3120 C.ar  348  TYR348      0.0417
    180  CE2       70.3230   74.8060   12.5030 C.ar  348  TYR348      0.0417
    181  CZ        71.4360   74.4680   11.7220 C.ar  348  TYR348      0.1957
    182  OH        71.3830   74.4830   10.3430 O.3   348  TYR348     -0.2866
@<TRIPOS>BOND
     1    44    45    1
     2    45    46    1
     3    45    48    1
     4    46    47    2
     5    48    49    1
     6    49    50    1
     7    40    39    2
     8   118   116   ar
     9    36    34    1
    10    50    51    1
    11    31    30    1
    12    31    34    1
    13    31    32    1
    14    38    39    1
    15    38    41    1
    16    38    37    1
    17    41    42    1
    18   116   115    1
    19   116   117   ar
    20    34    35    1
    21   115   114    1
    22    66    67    1
    23    51    52    2
    24    32    33    2
    25   110   111    1
    26    37    43    1
    27    42    43    1
    28    57    58    2
    29    57    56    1
    30   114   111    1
    31    28    27   ar
    32   111   112    1
    33    67    68    1
    34    67    70    1
    35    23    22    1
    36    23    26    1
    37    23    24    1
    38    52    53    1
    39    52    54    1
    40   109   107   ar
    41   109   108   ar
    42    26    27    1
    43    56    59    1
    44    56    55    1
    45    59    60    1
    46    27    29   ar
    47   107   105   ar
    48   125   124    1
    49   125   119    1
    50    68    69    2
    51    70    71    1
    52    24    25    2
    53   108   106   ar
    54    91    92    1
    55    61    60   ar
    56    61    63   ar
    57   112   119   am
    58   112   113    2
    59    60    62   ar
    60   124   123    1
    61   119   120    1
    62   105   104   ar
    63    71    73   ar
    64    71    72   ar
    65    94    93    2
    66    63    65   ar
    67    92    93    1
    68    73    75   ar
    69   106   104   ar
    70    62    64   ar
    71   123   120    1
    72    93    95   am
    73   104   103    1
    74   120   121    1
    75    72    74   ar
    76    65    64   ar
    77     1     2    1
    78    75    74   ar
    79   122   121    2
    80     2     5    1
    81     2     3    1
    82   121   126   am
    83    95    96    1
    84   103   100    1
    85    99   100    1
    86    99    97   am
    87    96    97    1
    88   100   101    1
    89   126   127    1
    90     3     4    2
    91    97    98    2
    92   150   148   ar
    93   150   151   ar
    94   148   146   ar
    95   127   128    1
    96   151   149   ar
    97    12    11    1
    98    12    13    1
    99   146   145    1
   100   146   147   ar
   101   101   102    2
   102    11    10    1
   103   145   142    1
   104   149   147   ar
   105    76    77    1
   106     6     7    1
   107   128   129    2
   108   128   130   am
   109    14    13    1
   110    77    78    1
   111    77    80    1
   112    10     7    1
   113   142   143    1
   114   142   141    1
   115   143   144    2
   116   130   131    1
   117   141   132   am
   118     7     8    1
   119    78    82   am
   120    78    79    2
   121    21    20    1
   122    21    15    1
   123    82    83    1
   124    84    83    1
   125    84    85    2
   126   182   181    1
   127    80    81    1
   128    20    19    1
   129    83    86    1
   130   132   131    1
   131   132   133    2
   132   131   134    1
   133    15     8   am
   134    15    16    1
   135     8     9    2
   136   134   135    1
   137   181   179   ar
   138   181   180   ar
   139    19    16    1
   140   179   177   ar
   141    86    87    1
   142   180   178   ar
   143    16    17    1
   144   137   136    1
   145   137   138    2
   146   135   136    1
   147    89    88    2
   148    87    88    1
   149    17    18    2
   150    88    90   am
   151   140   138    1
   152   177   176   ar
   153   138   139    1
   154   178   176   ar
   155   176   175    1
   156   169   168   ar
   157   171   172    1
   158   175   172    1
   159   172   173    1
   160   168   170   ar
   161   168   167    1
   162   155   154    2
   163   167   164    1
   164   164   165    1
   165   164   163    1
   166   166   165    2
   167   173   174    2
   168   154   163   am
   169   154   153    1
   170   156   153    1
   171   156   157    1
   172   158   157   ar
   173   158   160   ar
   174   153   152    1
   175   157   159   ar
   176   160   162   ar
   177   159   161   ar
   178   162   161   ar
