@<TRIPOS>MOLECULE
tmp/2plmA00.pdb
 218 210 0 0 0
SMALL
GASTEIGER

@<TRIPOS>ATOM
      1  N         38.1120   29.2000   -4.4620 N.3    57  HIS57      -0.1241
      2  CA        39.1660   28.3670   -3.9000 C.3    57  HIS57       0.1621
      3  C         38.3240   27.2790   -3.2520 C.2    57  HIS57       0.2264
      4  O         38.0310   27.3240   -2.0530 O.2    57  HIS57      -0.2867
      5  CB        39.9610   29.1590   -2.8550 C.3    57  HIS57       0.0745
      6  CG        40.5130   30.4510   -3.3720 C.ar   57  HIS57       0.0817
      7  ND1       41.5720   30.5120   -4.2550 N.ar   57  HIS57      -0.2268
      8  CD2       40.1350   31.7340   -3.1540 C.ar   57  HIS57       0.1154
      9  CE1       41.8220   31.7730   -4.5560 C.ar   57  HIS57       0.1986
     10  NE2       40.9650   32.5350   -3.9000 N.ar   57  HIS57      -0.2212
     11  N         38.2480   25.5470    0.3210 N.3    60  MET60      -0.1245
     12  CA        38.0870   26.4520    1.4590 C.3    60  MET60       0.1570
     13  C         36.7290   26.3550    2.1500 C.2    60  MET60       0.2261
     14  O         36.4560   27.0460    3.1450 O.2    60  MET60      -0.2867
     15  CB        38.4120   27.8960    1.0530 C.3    60  MET60       0.0387
     16  CG        39.8960   28.0510    0.6730 C.3    60  MET60       0.0595
     17  SD        40.5740   29.7170    0.6070 S.3    60  MET60      -0.1393
     18  CE        41.0220   29.9370    2.3450 C.3    60  MET60       0.0692
     19  N         42.5210   42.0170    6.2150 N.3    72  PHE72      -0.1241
     20  CA        43.0480   41.1390    5.1760 C.3    72  PHE72       0.1605
     21  C         44.3680   40.4310    5.4970 C.2    72  PHE72       0.2264
     22  O         44.4780   39.2130    5.3470 O.2    72  PHE72      -0.2867
     23  CB        43.2090   41.9070    3.8740 C.3    72  PHE72       0.0534
     24  CG        43.8540   41.1050    2.7990 C.ar   72  PHE72      -0.0203
     25  CD1       43.1810   40.0390    2.2220 C.ar   72  PHE72      -0.0042
     26  CD2       45.1510   41.3880    2.3880 C.ar   72  PHE72      -0.0042
     27  CE1       43.7880   39.2580    1.2440 C.ar   72  PHE72      -0.0003
     28  CE2       45.7720   40.6180    1.4140 C.ar   72  PHE72      -0.0003
     29  CZ        45.0880   39.5470    0.8380 C.ar   72  PHE72      -0.0000
     30  N         43.8270   37.8950    8.2930 N.3    75  TRP75      -0.1227
     31  CA        43.0180   36.8120    7.7440 C.3    75  TRP75       0.1737
     32  C         43.8810   35.7800    7.0140 C.2    75  TRP75       0.2595
     33  O         43.7910   34.5780    7.2690 O.2    75  TRP75      -0.2718
     34  CB        41.9900   37.4000    6.7670 C.3    75  TRP75       0.0564
     35  CG        41.0540   36.3930    6.1620 C.ar   75  TRP75       0.0003
     36  CD1       39.8530   35.9810    6.6670 C.ar   75  TRP75       0.0946
     37  CD2       41.2400   35.6760    4.9330 C.ar   75  TRP75       0.0152
     38  NE1       39.2760   35.0530    5.8260 N.ar   75  TRP75      -0.2442
     39  CE2       40.1060   34.8480    4.7550 C.ar   75  TRP75       0.0810
     40  CE3       42.2530   35.6520    3.9660 C.ar   75  TRP75       0.0012
     41  CZ2       39.9560   34.0040    3.6460 C.ar   75  TRP75       0.0191
     42  CZ3       42.1050   34.8100    2.8580 C.ar   75  TRP75       0.0001
     43  CH2       40.9620   33.9980    2.7110 C.ar   75  TRP75       0.0015
     44  N         44.7270   36.2580    6.1100 N.am   76  LEU76      -0.1980
     45  CA        45.5520   35.3520    5.3190 C.3    76  LEU76       0.1596
     46  C         46.8110   34.7970    5.9870 C.2    76  LEU76       0.2287
     47  O         46.9800   33.5830    6.0780 O.2    76  LEU76      -0.2864
     48  CB        45.9390   36.0250    3.9950 C.3    76  LEU76       0.0297
     49  CG        46.8630   35.2200    3.0760 C.3    76  LEU76       0.0022
     50  CD1       46.2200   33.8850    2.7480 C.3    76  LEU76       0.0001
     51  CD2       47.1330   36.0070    1.8060 C.3    76  LEU76       0.0001
     52  N         44.4040   31.8150    7.8490 N.3    80  VAL80      -0.1231
     53  CA        44.3250   30.8690    6.7540 C.3    80  VAL80       0.1692
     54  C         45.5560   30.0180    6.4370 C.2    80  VAL80       0.2591
     55  O         45.4600   28.7970    6.4380 O.2    80  VAL80      -0.2718
     56  CB        43.8560   31.5960    5.4560 C.3    80  VAL80       0.0266
     57  CG1       43.8520   30.6290    4.2720 C.3    80  VAL80       0.0020
     58  CG2       42.4590   32.1800    5.6720 C.3    80  VAL80       0.0020
     59  N         46.7040   30.6300    6.1690 N.am   81  LEU81      -0.1980
     60  CA        47.8790   29.8320    5.8040 C.3    81  LEU81       0.1596
     61  C         48.2600   28.6930    6.7530 C.2    81  LEU81       0.2287
     62  O         48.6160   27.6070    6.3030 O.2    81  LEU81      -0.2864
     63  CB        49.0830   30.7390    5.5300 C.3    81  LEU81       0.0297
     64  CG        48.8970   31.6100    4.2770 C.3    81  LEU81       0.0022
     65  CD1       50.1480   32.4450    4.0480 C.3    81  LEU81       0.0001
     66  CD2       48.6080   30.7400    3.0560 C.3    81  LEU81       0.0001
     67  N         45.8760   25.9170    6.0380 N.3    84  GLU84      -0.1245
     68  CA        46.1020   25.3170    4.7350 C.3    84  GLU84       0.1567
     69  C         47.3070   24.3690    4.7560 C.2    84  GLU84       0.2260
     70  O         47.3690   23.4320    3.9640 O.2    84  GLU84      -0.2867
     71  CB        46.2700   26.3970    3.6630 C.3    84  GLU84       0.0388
     72  CG        45.0370   27.2790    3.5250 C.3    84  GLU84       0.1160
     73  CD        45.0500   28.1530    2.2790 C.2    84  GLU84       0.3649
     74  OE1       46.1390   28.6410    1.8940 O.co2  84  GLU84      -0.2457
     75  OE2       43.9570   28.3630    1.6990 O.co2  84  GLU84      -0.2457
     76  N         41.6370   28.3610   -8.0490 N.3   114  MET114     -0.1230
     77  CA        43.0360   28.7070   -7.8410 C.3   114  MET114      0.1702
     78  C         43.3980   28.1630   -6.4650 C.2   114  MET114      0.2592
     79  O         43.0430   28.7540   -5.4450 O.2   114  MET114     -0.2718
     80  CB        43.2690   30.2170   -7.8550 C.3   114  MET114      0.0401
     81  CG        44.7530   30.5810   -7.7100 C.3   114  MET114      0.0596
     82  SD        45.0950   32.2580   -7.0590 S.3   114  MET114     -0.1393
     83  CE        44.8800   33.2700   -8.5350 C.3   114  MET114      0.0692
     84  N         44.1010   27.0370   -6.4350 N.am  115  TYR115     -0.1962
     85  CA        44.4730   26.4350   -5.1640 C.3   115  TYR115      0.1771
     86  C         45.6540   25.4720   -5.3150 C.2   115  TYR115      0.2619
     87  O         46.4670   25.6110   -6.2340 O.2   115  TYR115     -0.2715
     88  CB        43.2570   25.6990   -4.5820 C.3   115  TYR115      0.0574
     89  CG        43.1330   25.8270   -3.0820 C.ar  115  TYR115     -0.0198
     90  CD1       43.1410   27.0810   -2.4660 C.ar  115  TYR115     -0.0009
     91  CD2       42.9940   24.6980   -2.2750 C.ar  115  TYR115     -0.0009
     92  CE1       43.0130   27.2050   -1.0730 C.ar  115  TYR115      0.0417
     93  CE2       42.8620   24.8110   -0.8890 C.ar  115  TYR115      0.0417
     94  CZ        42.8740   26.0610   -0.2980 C.ar  115  TYR115      0.1957
     95  OH        42.7620   26.1630    1.0670 O.3   115  TYR115     -0.2866
     96  N         45.7530   24.5170   -4.3930 N.am  116  PHE116     -0.1974
     97  CA        46.8080   23.5050   -4.4210 C.3   116  PHE116      0.1639
     98  C         46.1490   22.1270   -4.3800 C.2   116  PHE116      0.2290
     99  O         44.9270   22.0350   -4.2410 O.2   116  PHE116     -0.2864
    100  CB        47.7930   23.6890   -3.2540 C.3   116  PHE116      0.0560
    101  CG        47.1350   23.8490   -1.9100 C.ar  116  PHE116     -0.0200
    102  CD1       46.6860   25.0950   -1.4880 C.ar  116  PHE116     -0.0042
    103  CD2       46.9910   22.7560   -1.0570 C.ar  116  PHE116     -0.0042
    104  CE1       46.1010   25.2590   -0.2210 C.ar  116  PHE116     -0.0003
    105  CE2       46.4110   22.9040    0.2080 C.ar  116  PHE116     -0.0003
    106  CZ        45.9650   24.1620    0.6280 C.ar  116  PHE116     -0.0000
    107  N         46.6470   26.2740  -10.6150 N.3   136  ARG136     -0.1231
    108  CA        47.3370   26.1040   -9.3540 C.3   136  ARG136      0.1694
    109  C         47.7990   27.4770   -8.8960 C.2   136  ARG136      0.2593
    110  O         48.2930   28.2610   -9.7000 O.2   136  ARG136     -0.2718
    111  CB        48.5500   25.1970   -9.5170 C.3   136  ARG136      0.0321
    112  CG        49.0250   24.6320   -8.1950 C.3   136  ARG136      0.0489
    113  CD        50.4720   24.9060   -7.9600 C.3   136  ARG136      0.2205
    114  NE        50.9500   24.1980   -6.7770 N.pl3 136  ARG136     -0.0865
    115  CZ        50.7650   24.6050   -5.5260 C.cat 136  ARG136      0.5346
    116  NH1       50.1050   25.7280   -5.2740 N.pl3 136  ARG136      0.1354
    117  NH2       51.2610   23.8900   -4.5270 N.pl3 136  ARG136      0.1354
    118  N         47.6310   27.7690   -7.6090 N.am  137  GLY137     -0.1942
    119  CA        48.0640   29.0550   -7.0920 C.3   137  GLY137      0.2014
    120  C         49.5740   29.1200   -7.1890 C.2   137  GLY137      0.2639
    121  O         50.2560   28.2040   -6.7310 O.2   137  GLY137     -0.2714
    122  N         50.1090   30.1860   -7.7800 N.am  138  LEU138     -0.1963
    123  CA        51.5550   30.3120   -7.9240 C.3   138  LEU138      0.1728
    124  C         52.1170   31.5030   -7.1620 C.2   138  LEU138      0.2616
    125  O         51.5350   32.5840   -7.1700 O.2   138  LEU138     -0.2715
    126  CB        51.9320   30.4530   -9.4060 C.3   138  LEU138      0.0311
    127  CG        51.2980   29.4450  -10.3690 C.3   138  LEU138      0.0022
    128  CD1       51.7340   29.7670  -11.7940 C.3   138  LEU138      0.0001
    129  CD2       51.7140   28.0330   -9.9900 C.3   138  LEU138      0.0001
    130  N         53.2520   31.2860   -6.5080 N.am  139  VAL139     -0.1977
    131  CA        53.9530   32.3270   -5.7540 C.3   139  VAL139      0.1596
    132  C         55.4280   31.9700   -5.7870 C.2   139  VAL139      0.2287
    133  O         55.7900   30.8020   -5.9300 O.2   139  VAL139     -0.2864
    134  CB        53.4850   32.4210   -4.2730 C.3   139  VAL139      0.0276
    135  CG1       52.0210   32.8050   -4.2140 C.3   139  VAL139      0.0022
    136  CG2       53.7320   31.1140   -3.5590 C.3   139  VAL139      0.0022
    137  N         55.8950   24.9670   -7.8860 N.3   148  ARG148     -0.1245
    138  CA        54.4770   25.1830   -8.1420 C.3   148  ARG148      0.1563
    139  C         54.1140   25.2240   -9.6330 C.2   148  ARG148      0.2260
    140  O         53.1440   24.5920  -10.0570 O.2   148  ARG148     -0.2867
    141  CB        54.0080   26.4540   -7.4320 C.3   148  ARG148      0.0307
    142  CG        54.0530   26.3370   -5.9030 C.3   148  ARG148      0.0489
    143  CD        53.4000   27.5360   -5.2440 C.3   148  ARG148      0.2205
    144  NE        53.3200   27.4300   -3.7890 N.pl3 148  ARG148     -0.0865
    145  CZ        54.3630   27.5280   -2.9690 C.cat 148  ARG148      0.5346
    146  NH1       55.5820   27.7270   -3.4530 N.pl3 148  ARG148      0.1354
    147  NH2       54.1820   27.4560   -1.6590 N.pl3 148  ARG148      0.1354
    148  N         49.2340   34.0290   -8.0040 N.3   173  HIS173     -0.1241
    149  CA        48.4110   34.6390   -6.9610 C.3   173  HIS173      0.1621
    150  C         48.1140   36.1280   -7.0880 C.2   173  HIS173      0.2264
    151  O         46.9610   36.5480   -6.9650 O.2   173  HIS173     -0.2867
    152  CB        49.0220   34.3730   -5.5830 C.3   173  HIS173      0.0745
    153  CG        48.2270   34.9540   -4.4560 C.ar  173  HIS173      0.0817
    154  ND1       48.2070   36.3050   -4.1810 N.ar  173  HIS173     -0.2268
    155  CD2       47.3850   34.3780   -3.5670 C.ar  173  HIS173      0.1154
    156  CE1       47.3870   36.5350   -3.1710 C.ar  173  HIS173      0.1986
    157  NE2       46.8750   35.3820   -2.7810 N.ar  173  HIS173     -0.2212
    158  N         44.9040   37.5890   -8.7740 N.3   200  HIS200     -0.1241
    159  CA        44.2260   38.5650   -7.9220 C.3   200  HIS200      0.1621
    160  C         44.8570   39.8890   -8.3110 C.2   200  HIS200      0.2264
    161  O         46.0570   40.0600   -8.1590 O.2   200  HIS200     -0.2867
    162  CB        44.4960   38.3030   -6.4400 C.3   200  HIS200      0.0745
    163  CG        43.8580   37.0570   -5.9160 C.ar  200  HIS200      0.0817
    164  ND1       44.5880   35.9850   -5.4560 N.ar  200  HIS200     -0.2268
    165  CD2       42.5570   36.7160   -5.7730 C.ar  200  HIS200      0.1154
    166  CE1       43.7660   35.0360   -5.0490 C.ar  200  HIS200      0.1986
    167  NE2       42.5260   35.4550   -5.2320 N.ar  200  HIS200     -0.2212
    168  N         43.6200   43.9760   -5.3800 N.3   203  GLU203     -0.1245
    169  CA        42.6090   43.6450   -4.3810 C.3   203  GLU203      0.1567
    170  C         42.5790   44.6170   -3.2130 C.2   203  GLU203      0.2260
    171  O         41.5110   44.9500   -2.7040 O.2   203  GLU203     -0.2867
    172  CB        42.8280   42.2340   -3.8330 C.3   203  GLU203      0.0388
    173  CG        41.8510   41.8610   -2.7180 C.3   203  GLU203      0.1160
    174  CD        41.9600   40.3980   -2.3060 C.2   203  GLU203      0.3649
    175  OE1       43.0030   39.7750   -2.6110 O.co2 203  GLU203     -0.2457
    176  OE2       41.0070   39.8800   -1.6740 O.co2 203  GLU203     -0.2457
    177  N         38.8390   40.5250   -8.3750 N.3   228  HIS228     -0.1241
    178  CA        38.8090   41.7820   -7.6250 C.3   228  HIS228      0.1621
    179  C         38.8950   43.0860   -8.4200 C.2   228  HIS228      0.2264
    180  O         37.8730   43.6940   -8.6960 O.2   228  HIS228     -0.2867
    181  CB        39.8780   41.7590   -6.5340 C.3   228  HIS228      0.0745
    182  CG        39.7900   40.5540   -5.6560 C.ar  228  HIS228      0.0817
    183  ND1       38.6060   40.1410   -5.0810 N.ar  228  HIS228     -0.2268
    184  CD2       40.7280   39.6560   -5.2730 C.ar  228  HIS228      0.1154
    185  CE1       38.8180   39.0400   -4.3840 C.ar  228  HIS228      0.1986
    186  NE2       40.0970   38.7240   -4.4850 N.ar  228  HIS228     -0.2212
    187  N         33.3360   39.1440   -0.8690 N.3   253  SER253     -0.1217
    188  CA        34.6910   39.0400   -0.3350 C.3   253  SER253      0.1889
    189  C         35.3560   40.3990   -0.1410 C.2   253  SER253      0.2288
    190  O         36.0200   40.6270    0.8830 O.2   253  SER253     -0.2866
    191  CB        35.5620   38.1760   -1.2460 C.3   253  SER253      0.2089
    192  OG        36.8470   38.0210   -0.6710 O.3   253  SER253     -0.2183
    193  N         36.3750   41.5400    3.7530 N.3   257  LEU257     -0.1245
    194  CA        37.7620   41.7290    4.1540 C.3   257  LEU257      0.1561
    195  C         38.1390   43.2050    4.1770 C.2   257  LEU257      0.2260
    196  O         39.3180   43.5570    4.2440 O.2   257  LEU257     -0.2867
    197  CB        38.7060   40.9510    3.2340 C.3   257  LEU257      0.0270
    198  CG        38.5500   39.4280    3.2930 C.3   257  LEU257      0.0019
    199  CD1       39.6810   38.7690    2.5180 C.3   257  LEU257      0.0001
    200  CD2       38.5690   38.9580    4.7340 C.3   257  LEU257      0.0001
    201  N         34.7700   33.8340   -4.7590 N.3   279  ASP279     -0.1225
    202  CA        36.0230   33.7440   -4.0240 C.3   279  ASP279      0.1805
    203  C         35.8210   32.5120   -3.1220 C.2   279  ASP279      0.2598
    204  O         34.9670   31.6800   -3.4160 O.2   279  ASP279     -0.2718
    205  CB        36.2910   35.0090   -3.1950 C.3   279  ASP279      0.1424
    206  CG        37.7750   35.3190   -3.0700 C.2   279  ASP279      0.3668
    207  OD1       38.6060   34.4380   -3.3590 O.co2 279  ASP279     -0.2456
    208  OD2       38.1260   36.4430   -2.6770 O.co2 279  ASP279     -0.2456
    209  N         36.5760   32.3980   -2.0320 N.am  280  GLY280     -0.1957
    210  CA        36.4530   31.2330   -1.1600 C.3   280  GLY280      0.1869
    211  C         35.4740   31.3610   -0.0070 C.2   280  GLY280      0.2309
    212  O         35.1360   32.4630    0.4050 O.2   280  GLY280     -0.2863
    213  N         35.9690   33.7020    3.1870 N.3   283  SER283     -0.1217
    214  CA        35.8170   35.1510    3.1240 C.3   283  SER283      0.1889
    215  C         34.6050   35.5450    2.2880 C.2   283  SER283      0.2288
    216  O         34.6890   36.4480    1.4540 O.2   283  SER283     -0.2866
    217  CB        37.0710   35.8220    2.5430 C.3   283  SER283      0.2089
    218  OG        37.2400   35.5260    1.1640 O.3   283  SER283     -0.2183
@<TRIPOS>BOND
     1   128   127    1
     2   107   108    1
     3   127   129    1
     4   127   126    1
     5   140   139    2
     6   110   109    2
     7   139   138    1
     8   111   108    1
     9   111   112    1
    10   126   123    1
    11   108   109    1
    12   109   118   am
    13   158   159    1
    14   180   179    2
    15    83    82    1
    16   179   178    1
    17   177   178    1
    18   160   161    2
    19   160   159    1
    20   112   113    1
    21   138   137    1
    22   138   141    1
    23    76    77    1
    24   148   149    1
    25   113   114    1
    26   123   122    1
    27   123   124    1
    28   159   162    1
    29    80    77    1
    30    80    81    1
    31    77    78    1
    32   122   120   am
    33    81    82    1
    34   178   181    1
    35   118   119    1
    36   141   142    1
    37   120   119    1
    38   120   121    2
    39   125   124    2
    40   124   130   am
    41   150   151    2
    42   150   149    1
    43   149   152    1
    44   114   115    2
    45   181   182    1
    46   130   131    1
    47    78    84   am
    48    78    79    2
    49   162   163    1
    50    84    85    1
    51    87    86    2
    52   133   132    2
    53   163   165   ar
    54   163   164   ar
    55   142   143    1
    56   132   131    1
    57   165   167   ar
    58   131   134    1
    59   182   184   ar
    60   182   183   ar
    61   152   153    1
    62   115   116    1
    63   115   117    1
    64   164   166   ar
    65   168   169    1
    66    86    85    1
    67    86    96   am
    68   184   186   ar
    69   143   144    1
    70   167   166   ar
    71    85    88    1
    72   183   185   ar
    73   201   202    1
    74    88    89    1
    75     9     7   ar
    76     9    10   ar
    77   186   185   ar
    78     1     2    1
    79   153   154   ar
    80   153   155   ar
    81    97    96    1
    82    97    98    1
    83    97   100    1
    84   169   172    1
    85   169   170    1
    86    98    99    2
    87   134   135    1
    88   134   136    1
    89     7     6   ar
    90   154   156   ar
    91   202   205    1
    92   202   203    1
    93    10     8   ar
    94     2     3    1
    95     2     5    1
    96   172   173    1
    97   144   145    2
    98   155   157   ar
    99   146   145    1
   100   204   203    2
   101     6     8   ar
   102     6     5    1
   103   207   206   ar
   104   100   101    1
   105     3     4    2
   106   170   171    2
   107   205   206    1
   108   156   157   ar
   109   203   209   am
   110    89    90   ar
   111    89    91   ar
   112   206   208   ar
   113   145   147    1
   114   173   174    1
   115   175   174   ar
   116    90    92   ar
   117   174   176   ar
   118    91    93   ar
   119   209   210    1
   120   101   102   ar
   121   101   103   ar
   122   102   104   ar
   123   191   192    1
   124   191   188    1
   125   210   211    1
   126    92    94   ar
   127   103   105   ar
   128    93    94   ar
   129   187   188    1
   130   188   189    1
   131    94    95    1
   132   104   106   ar
   133   189   190    2
   134   211   212    2
   135   105   106   ar
   136    11    12    1
   137    17    16    1
   138    17    18    1
   139    16    15    1
   140    29    27   ar
   141    29    28   ar
   142    15    12    1
   143   218   217    1
   144    27    25   ar
   145    28    26   ar
   146   216   215    2
   147    12    13    1
   148    75    73   ar
   149    51    49    1
   150    74    73   ar
   151    13    14    2
   152    25    24   ar
   153    73    72    1
   154   215   214    1
   155    26    24   ar
   156   199   198    1
   157   217   214    1
   158    43    42   ar
   159    43    41   ar
   160    50    49    1
   161    24    23    1
   162    42    40   ar
   163    66    64    1
   164    49    48    1
   165   214   213    1
   166   197   198    1
   167   197   194    1
   168   198   200    1
   169    72    71    1
   170    41    39   ar
   171    71    68    1
   172   193   194    1
   173    23    20    1
   174    70    69    2
   175    40    37   ar
   176    48    45    1
   177    65    64    1
   178   194   195    1
   179   195   196    2
   180    57    56    1
   181    64    63    1
   182    68    69    1
   183    68    67    1
   184    39    37   ar
   185    39    38   ar
   186    37    35   ar
   187    20    21    1
   188    20    19    1
   189    45    46    1
   190    45    44    1
   191    22    21    2
   192    56    58    1
   193    56    53    1
   194    63    60    1
   195    60    59    1
   196    60    61    1
   197    38    36   ar
   198    46    47    2
   199    44    32   am
   200    35    36   ar
   201    35    34    1
   202    59    54   am
   203    62    61    2
   204    54    55    2
   205    54    53    1
   206    53    52    1
   207    34    31    1
   208    32    33    2
   209    32    31    1
   210    31    30    1
