@<TRIPOS>MOLECULE
tmp/2plrA06.pdb
 98 95 0 0 0
SMALL
GASTEIGER

@<TRIPOS>ATOM
      1  N          3.5860   -8.7220  -27.0010 N.3    38  TRP38      -0.1227
      2  CA         3.3790   -8.0310  -25.7340 C.3    38  TRP38       0.1737
      3  C          2.9200   -6.6040  -26.0170 C.2    38  TRP38       0.2595
      4  O          2.0240   -6.0820  -25.3470 O.2    38  TRP38      -0.2718
      5  CB         4.6780   -7.9940  -24.9240 C.3    38  TRP38       0.0564
      6  CG         4.4970   -7.4010  -23.5610 C.ar   38  TRP38       0.0003
      7  CD1        4.8720   -6.1580  -23.1480 C.ar   38  TRP38       0.0946
      8  CD2        3.8670   -8.0270  -22.4400 C.ar   38  TRP38       0.0152
      9  NE1        4.5140   -5.9690  -21.8340 N.ar   38  TRP38      -0.2442
     10  CE2        3.8940   -7.1000  -21.3750 C.ar   38  TRP38       0.0810
     11  CE3        3.2790   -9.2810  -22.2300 C.ar   38  TRP38       0.0012
     12  CZ2        3.3560   -7.3900  -20.1150 C.ar   38  TRP38       0.0191
     13  CZ3        2.7460   -9.5710  -20.9780 C.ar   38  TRP38       0.0001
     14  CH2        2.7880   -8.6260  -19.9370 C.ar   38  TRP38       0.0015
     15  N          3.5280   -5.9810  -27.0250 N.am   39  ASN39      -0.1974
     16  CA         3.2010   -4.6040  -27.3890 C.3    39  ASN39       0.1688
     17  C          1.7710   -4.3820  -27.8640 C.2    39  ASN39       0.2292
     18  O          1.3170   -3.2410  -27.9390 O.2    39  ASN39      -0.2864
     19  CB         4.1490   -4.0870  -28.4770 C.3    39  ASN39       0.1181
     20  CG         5.5760   -3.9170  -27.9850 C.2    39  ASN39       0.2629
     21  OD1        5.8380   -3.8810  -26.7810 O.2    39  ASN39      -0.2716
     22  ND2        6.5080   -3.7880  -28.9240 N.am   39  ASN39      -0.0877
     23  N         -1.2130   -3.9870  -26.8930 N.3    41  SER41      -0.1217
     24  CA        -2.0960   -3.6350  -25.7840 C.3    41  SER41       0.1889
     25  C         -3.5470   -3.5870  -26.2480 C.2    41  SER41       0.2288
     26  O         -3.8180   -3.3890  -27.4370 O.2    41  SER41      -0.2866
     27  CB        -1.6860   -2.2820  -25.1980 C.3    41  SER41       0.2089
     28  OG        -1.6440   -1.2830  -26.2010 O.3    41  SER41      -0.2183
     29  N         -5.9990   -0.6520  -21.4620 N.3    45  HIS45      -0.1241
     30  CA        -4.8030    0.1730  -21.6190 C.3    45  HIS45       0.1621
     31  C         -5.1920    1.5250  -22.2260 C.2    45  HIS45       0.2264
     32  O         -4.7940    2.5810  -21.7360 O.2    45  HIS45      -0.2867
     33  CB        -3.8170   -0.5580  -22.5380 C.3    45  HIS45       0.0745
     34  CG        -2.7670    0.3220  -23.1490 C.ar   45  HIS45       0.0817
     35  ND1       -1.4610    0.3350  -22.7140 N.ar   45  HIS45      -0.2268
     36  CD2       -2.8260    1.1710  -24.1990 C.ar   45  HIS45       0.1154
     37  CE1       -0.7540    1.1560  -23.4780 C.ar   45  HIS45       0.1986
     38  NE2       -1.5620    1.6750  -24.3870 N.ar   45  HIS45      -0.2212
     39  N         -5.0970    5.2680  -20.1740 N.3    49  LYS49      -0.1245
     40  CA        -4.1260    6.2380  -20.6550 C.3    49  LYS49       0.1561
     41  C         -4.7660    7.4680  -21.2780 C.2    49  LYS49       0.2260
     42  O         -4.2400    8.5670  -21.1350 O.2    49  LYS49      -0.2867
     43  CB        -3.1430    5.5860  -21.6300 C.3    49  LYS49       0.0271
     44  CG        -2.1670    4.6690  -20.9170 C.3    49  LYS49       0.0035
     45  CD        -1.0770    4.1620  -21.8340 C.3    49  LYS49       0.0206
     46  CE        -0.1030    3.2980  -21.0550 C.3    49  LYS49       0.1093
     47  NZ         1.0130    2.7920  -21.8980 N.3    49  LYS49      -0.1314
     48  N         -0.3170   -1.5460  -17.4070 N.3    66  HIS66      -0.1241
     49  CA         0.0590   -2.6350  -18.2990 C.3    66  HIS66       0.1621
     50  C         -0.3380   -3.9980  -17.7360 C.2    66  HIS66       0.2264
     51  O         -0.8350   -4.8490  -18.4700 O.2    66  HIS66      -0.2867
     52  CB         1.5640   -2.5950  -18.5900 C.3    66  HIS66       0.0745
     53  CG         2.0270   -1.3060  -19.1970 C.ar   66  HIS66       0.0817
     54  ND1        1.1790   -0.4340  -19.8440 N.ar   66  HIS66      -0.2268
     55  CD2        3.2630   -0.7540  -19.2690 C.ar   66  HIS66       0.1154
     56  CE1        1.8710    0.6010  -20.2870 C.ar   66  HIS66       0.1986
     57  NE2        3.1340    0.4340  -19.9530 N.ar   66  HIS66      -0.2212
     58  N         -4.1420   -4.3710  -18.1060 N.3    69  ASP69      -0.1225
     59  CA        -4.5050   -4.6650  -19.4830 C.3    69  ASP69       0.1805
     60  C         -4.1370   -6.1050  -19.8190 C.2    69  ASP69       0.2597
     61  O         -4.9200   -6.8260  -20.4440 O.2    69  ASP69      -0.2718
     62  CB        -3.7880   -3.7000  -20.4330 C.3    69  ASP69       0.1424
     63  CG        -4.2930   -3.8040  -21.8620 C.2    69  ASP69       0.3668
     64  OD1       -5.4710   -3.4670  -22.1080 O.co2  69  ASP69      -0.2456
     65  OD2       -3.5090   -4.2200  -22.7370 O.co2  69  ASP69      -0.2456
     66  N         -2.9500   -6.5370  -19.4060 N.am   70  PHE70      -0.1976
     67  CA        -2.5470   -7.9040  -19.6970 C.3    70  PHE70       0.1639
     68  C         -3.4230   -8.9410  -18.9950 C.2    70  PHE70       0.2290
     69  O         -3.6980   -9.9980  -19.5640 O.2    70  PHE70      -0.2864
     70  CB        -1.0900   -8.1590  -19.3180 C.3    70  PHE70       0.0560
     71  CG        -0.6360   -9.5540  -19.6370 C.ar   70  PHE70      -0.0200
     72  CD1       -0.5660   -9.9830  -20.9580 C.ar   70  PHE70      -0.0042
     73  CD2       -0.3320  -10.4520  -18.6210 C.ar   70  PHE70      -0.0042
     74  CE1       -0.2020  -11.2950  -21.2640 C.ar   70  PHE70      -0.0003
     75  CE2        0.0330  -11.7670  -18.9160 C.ar   70  PHE70      -0.0003
     76  CZ         0.0980  -12.1850  -20.2380 C.ar   70  PHE70      -0.0000
     77  N         -6.2270   -9.4980  -21.2900 N.3    73  ARG73      -0.1245
     78  CA        -5.8230  -10.2180  -22.4960 C.3    73  ARG73       0.1563
     79  C         -5.5850  -11.6810  -22.1600 C.2    73  ARG73       0.2260
     80  O         -5.9000  -12.5780  -22.9440 O.2    73  ARG73      -0.2867
     81  CB        -4.5280   -9.6340  -23.0670 C.3    73  ARG73       0.0307
     82  CG        -4.6630   -8.2440  -23.6540 C.3    73  ARG73       0.0489
     83  CD        -3.2860   -7.6480  -23.9230 C.3    73  ARG73       0.2205
     84  NE        -2.5300   -8.4500  -24.8780 N.pl3  73  ARG73      -0.0865
     85  CZ        -1.2600   -8.2290  -25.2030 C.cat  73  ARG73       0.5346
     86  NH1       -0.5890   -7.2290  -24.6440 N.pl3  73  ARG73       0.1354
     87  NH2       -0.6660   -8.9970  -26.1060 N.pl3  73  ARG73       0.1354
     88  N         11.1540   -3.3920  -18.5740 N.3    99  ARG99      -0.1245
     89  CA        10.7100   -2.0100  -18.7290 C.3    99  ARG99       0.1563
     90  C         10.3790   -1.3470  -17.3930 C.2    99  ARG99       0.2260
     91  O         10.6830   -0.1750  -17.1800 O.2    99  ARG99      -0.2867
     92  CB         9.4930   -1.9460  -19.6590 C.3    99  ARG99       0.0307
     93  CG         9.8240   -2.2500  -21.1110 C.3    99  ARG99       0.0489
     94  CD         8.5910   -2.2640  -22.0020 C.3    99  ARG99       0.2205
     95  NE         8.9500   -2.6240  -23.3750 N.pl3  99  ARG99      -0.0865
     96  CZ         8.0770   -2.9340  -24.3290 C.cat  99  ARG99       0.5346
     97  NH1        8.5140   -3.2510  -25.5410 N.pl3  99  ARG99       0.1354
     98  NH2        6.7740   -2.9280  -24.0760 N.pl3  99  ARG99       0.1354
@<TRIPOS>BOND
     1    22    20   am
     2    19    20    1
     3    19    16    1
     4    20    21    2
     5    18    17    2
     6    17    16    1
     7    26    25    2
     8    16    15    1
     9    15     3   am
    10     1     2    1
    11    23    24    1
    12    25    24    1
    13    28    27    1
    14    87    85    1
    15     3     2    1
    16     3     4    2
    17    24    27    1
    18     2     5    1
    19    97    96    1
    20    85    84    2
    21    85    86    1
    22     5     6    1
    23    84    83    1
    24    38    36   ar
    25    38    37   ar
    26    96    98    1
    27    96    95    2
    28    36    34   ar
    29    83    82    1
    30    82    81    1
    31     6     7   ar
    32     6     8   ar
    33    37    35   ar
    34    95    94    1
    35    34    35   ar
    36    34    33    1
    37     7     9   ar
    38    81    78    1
    39    80    79    2
    40    65    63   ar
    41    33    30    1
    42    78    79    1
    43    78    77    1
    44     8    11   ar
    45     8    10   ar
    46    11    13   ar
    47    31    32    2
    48    31    30    1
    49    64    63   ar
    50    94    93    1
    51    47    46    1
    52    63    62    1
    53     9    10   ar
    54    45    46    1
    55    45    44    1
    56    43    44    1
    57    43    40    1
    58    30    29    1
    59    10    12   ar
    60    41    42    2
    61    41    40    1
    62    74    72   ar
    63    74    76   ar
    64    93    92    1
    65    13    14   ar
    66    72    71   ar
    67    40    39    1
    68    61    60    2
    69    62    59    1
    70    56    57   ar
    71    56    54   ar
    72    76    75   ar
    73    12    14   ar
    74    57    55   ar
    75    54    53   ar
    76    60    59    1
    77    60    66   am
    78    67    66    1
    79    67    70    1
    80    67    68    1
    81    92    89    1
    82    71    70    1
    83    71    73   ar
    84    69    68    2
    85    59    58    1
    86    55    53   ar
    87    53    52    1
    88    75    73   ar
    89    89    88    1
    90    89    90    1
    91    52    49    1
    92    51    50    2
    93    49    50    1
    94    49    48    1
    95    90    91    2
