@<TRIPOS>MOLECULE
tmp/2plwA00.pdb
 201 196 0 0 0
SMALL
GASTEIGER

@<TRIPOS>ATOM
      1  N          1.3140   40.9150   14.6350 N.3     3  SER3       -0.1217
      2  CA         1.1950   41.5440   13.3200 C.3     3  SER3        0.1889
      3  C         -0.2170   41.3510   12.8390 C.2     3  SER3        0.2288
      4  O         -0.8870   40.3930   13.2050 O.2     3  SER3       -0.2866
      5  CB         2.1580   40.8930   12.2930 C.3     3  SER3        0.2089
      6  OG         1.8240   41.2820   10.9580 O.3     3  SER3       -0.2183
      7  N         -0.7820   40.5660    9.9080 N.3     5  ALA5       -0.1245
      8  CA        -0.6580   39.3920    8.9980 C.3     5  ALA5        0.1562
      9  C         -1.4480   38.1510    9.4970 C.2     5  ALA5        0.2260
     10  O         -1.9030   37.3270    8.6810 O.2     5  ALA5       -0.2867
     11  CB         0.8140   39.0300    8.7720 C.3     5  ALA5        0.0290
     12  N         -4.5670   37.2170    7.5830 N.3     8  LYS8       -0.1245
     13  CA        -4.3980   36.4770    6.3220 C.3     8  LYS8        0.1561
     14  C         -4.3960   34.9720    6.5660 C.2     8  LYS8        0.2260
     15  O         -4.9340   34.2270    5.7800 O.2     8  LYS8       -0.2867
     16  CB        -3.0990   36.8960    5.6210 C.3     8  LYS8        0.0271
     17  CG        -3.1640   38.3450    5.1450 C.3     8  LYS8        0.0035
     18  CD        -2.0180   38.7340    4.2140 C.3     8  LYS8        0.0206
     19  CE        -0.7380   38.9330    4.9790 C.3     8  LYS8        0.1093
     20  NZ         0.1600   39.9680    4.3720 N.3     8  LYS8       -0.1314
     21  N          6.2010   27.1640    9.6510 N.3    27  ASP27      -0.1225
     22  CA         5.7860   28.4960    9.2650 C.3    27  ASP27       0.1805
     23  C          7.0400   29.2150    8.8020 C.2    27  ASP27       0.2598
     24  O          7.8820   29.5710    9.6350 O.2    27  ASP27      -0.2718
     25  CB         5.1870   29.1830   10.4930 C.3    27  ASP27       0.1424
     26  CG         4.7850   30.6160   10.2370 C.2    27  ASP27       0.3668
     27  OD1        4.4550   30.9600    9.0920 O.co2  27  ASP27      -0.2456
     28  OD2        4.8240   31.4180   11.2070 O.co2  27  ASP27      -0.2456
     29  N          7.1810   29.3730    7.4890 N.am   28  ILE28      -0.1966
     30  CA         8.3860   29.9670    6.9160 C.3    28  ILE28       0.1727
     31  C          8.1720   31.4650    6.7670 C.2    28  ILE28       0.2617
     32  O          7.0840   31.8950    6.3580 O.2    28  ILE28      -0.2715
     33  CB         8.7190   29.3480    5.5480 C.3    28  ILE28       0.0290
     34  CG1        8.9320   27.8350    5.7050 C.3    28  ILE28       0.0022
     35  CG2        9.9770   30.0530    4.9310 C.3    28  ILE28       0.0023
     36  CD1        9.2260   27.1370    4.3940 C.3    28  ILE28       0.0001
     37  N          9.1990   32.2410    7.1140 N.am   29  GLY29      -0.1940
     38  CA         9.0770   33.6990    7.1560 C.3    29  GLY29       0.2014
     39  C          8.2230   34.0960    8.3510 C.2    29  GLY29       0.2639
     40  O          7.2810   34.8490    8.1960 O.2    29  GLY29      -0.2714
     41  N          8.5380   33.5770    9.5380 N.am   30  CYS30      -0.1953
     42  CA         7.5980   33.6530   10.6670 C.3    30  CYS30       0.1843
     43  C          7.6460   34.9720   11.4350 C.2    30  CYS30       0.2625
     44  O          6.7440   35.2220   12.2410 O.2    30  CYS30      -0.2714
     45  CB         7.8010   32.4990   11.6720 C.3    30  CYS30       0.0997
     46  SG         9.4480   32.4270   12.3810 S.3    30  CYS30      -0.0797
     47  N          8.6970   35.7780   11.2350 N.am   31  TYR31      -0.1960
     48  CA         8.8740   37.0150   12.0340 C.3    31  TYR31       0.1756
     49  C          7.7810   38.0320   11.7160 C.2    31  TYR31       0.2461
     50  O          7.5040   38.2830   10.5450 O.2    31  TYR31      -0.2730
     51  CB        10.2330   37.6520   11.7590 C.3    31  TYR31       0.0574
     52  CG        10.4690   38.9010   12.5720 C.ar   31  TYR31      -0.0198
     53  CD1       11.2130   38.8500   13.7250 C.ar   31  TYR31      -0.0009
     54  CD2        9.9180   40.1260   12.1740 C.ar   31  TYR31      -0.0009
     55  CE1       11.4000   39.9940   14.5070 C.ar   31  TYR31       0.0417
     56  CE2       10.0870   41.2750   12.9320 C.ar   31  TYR31       0.0417
     57  CZ        10.8340   41.2030   14.0930 C.ar   31  TYR31       0.1957
     58  OH        11.0320   42.3310   14.8560 O.3    31  TYR31      -0.2866
     59  N          7.2100   38.6820   12.7470 N.am   32  PRO32      -0.2716
     60  CA         7.4860   38.6230   14.2000 C.3    32  PRO32       0.1536
     61  C          6.7830   37.5130   14.9410 C.2    32  PRO32       0.2599
     62  O          7.0480   37.3400   16.1180 O.2    32  PRO32      -0.2715
     63  CB         6.9360   39.9690   14.7070 C.3    32  PRO32       0.0310
     64  CG         5.8290   40.2450   13.8160 C.3    32  PRO32       0.0237
     65  CD         6.2110   39.7200   12.4460 C.3    32  PRO32       0.0939
     66  N          5.8420   36.8370   14.2900 N.am   33  GLY33      -0.1941
     67  CA         5.2930   35.5960   14.8440 C.3    33  GLY33       0.2014
     68  C          3.8030   35.4150   14.8960 C.2    33  GLY33       0.2640
     69  O          3.3480   34.4760   15.5310 O.2    33  GLY33      -0.2714
     70  N          3.0310   36.2530   14.1940 N.am   34  SER34      -0.1935
     71  CA         1.5750   36.1540   14.3150 C.3    34  SER34       0.2055
     72  C          0.9500   34.9180   13.6840 C.2    34  SER34       0.2643
     73  O         -0.0790   34.4510   14.1630 O.2    34  SER34      -0.2714
     74  CB         0.8610   37.4470   13.8650 C.3    34  SER34       0.2130
     75  OG         0.7840   37.5290   12.4540 O.3    34  SER34      -0.2179
     76  N          1.5430   34.3710   12.6180 N.am   35  TRP35      -0.1973
     77  CA         1.0330   33.1110   12.0600 C.3    35  TRP35       0.1640
     78  C          1.2420   32.0070   13.0740 C.2    35  TRP35       0.2290
     79  O          0.4000   31.1290   13.2320 O.2    35  TRP35      -0.2864
     80  CB         1.7160   32.7780   10.7100 C.3    35  TRP35       0.0576
     81  CG         1.0790   33.5140    9.5470 C.ar   35  TRP35       0.0006
     82  CD1        0.3810   34.7190    9.5910 C.ar   35  TRP35       0.0946
     83  CD2        1.0310   33.0860    8.1680 C.ar   35  TRP35       0.0152
     84  NE1       -0.0880   35.0450    8.3340 N.ar   35  TRP35      -0.2442
     85  CE2        0.2880   34.0650    7.4460 C.ar   35  TRP35       0.0810
     86  CE3        1.5260   31.9650    7.4760 C.ar   35  TRP35       0.0012
     87  CZ2        0.0590   33.9750    6.0700 C.ar   35  TRP35       0.0191
     88  CZ3        1.2670   31.8570    6.1100 C.ar   35  TRP35       0.0001
     89  CH2        0.5480   32.8610    5.4170 C.ar   35  TRP35       0.0015
     90  N         10.4250   29.4880   10.9840 N.3    53  ILE53      -0.1231
     91  CA        11.7520   29.7740   10.4340 C.3    53  ILE53       0.1692
     92  C         11.7410   31.1970    9.9190 C.2    53  ILE53       0.2592
     93  O         10.8290   31.5680    9.2000 O.2    53  ILE53      -0.2718
     94  CB        12.1310   28.8230    9.2800 C.3    53  ILE53       0.0266
     95  CG1       12.4370   27.4240    9.8310 C.3    53  ILE53       0.0019
     96  CG2       13.4590   29.3330    8.5980 C.3    53  ILE53       0.0020
     97  CD1       12.6960   26.3870    8.7440 C.3    53  ILE53       0.0001
     98  N         12.7470   31.9930   10.2660 N.am   54  ASP54      -0.1960
     99  CA        12.9230   33.2970    9.5950 C.3    54  ASP54       0.1840
    100  C         14.3850   33.6660    9.6270 C.2    54  ASP54       0.2622
    101  O         15.1010   33.2370   10.5190 O.2    54  ASP54      -0.2715
    102  CB        12.1180   34.3870   10.3150 C.3    54  ASP54       0.1450
    103  CG        11.8600   35.5960    9.4670 C.2    54  ASP54       0.3671
    104  OD1       12.8050   36.3440    9.1340 O.co2  54  ASP54      -0.2456
    105  OD2       10.6870   35.8320    9.1450 O.co2  54  ASP54      -0.2456
    106  N         14.8230   34.4710    8.6600 N.am   55  LYS55      -0.1963
    107  CA        16.2060   34.9800    8.7070 C.3    55  LYS55       0.1728
    108  C         16.3780   35.9820    9.8640 C.2    55  LYS55       0.2616
    109  O         17.4740   36.1390   10.3720 O.2    55  LYS55      -0.2715
    110  CB        16.6460   35.5600    7.3550 C.3    55  LYS55       0.0311
    111  CG        15.8240   36.7230    6.8710 C.3    55  LYS55       0.0038
    112  CD        15.9440   36.9640    5.3430 C.3    55  LYS55       0.0206
    113  CE        17.3400   37.4210    4.9500 C.3    55  LYS55       0.1093
    114  NZ        17.3460   37.8980    3.5340 N.3    55  LYS55      -0.1314
    115  N         15.2840   36.6190   10.2740 N.am   56  LYS56      -0.1977
    116  CA        15.2630   37.5250   11.4340 C.3    56  LYS56       0.1596
    117  C         14.8910   36.7840   12.7260 C.2    56  LYS56       0.2287
    118  O         13.9830   35.9440   12.7420 O.2    56  LYS56      -0.2864
    119  CB        14.2570   38.6510   11.2210 C.3    56  LYS56       0.0298
    120  CG        14.6150   39.6620   10.1390 C.3    56  LYS56       0.0038
    121  CD        13.6260   40.8510   10.1810 C.3    56  LYS56       0.0206
    122  CE        12.5100   40.6490    9.1320 C.3    56  LYS56       0.1093
    123  NZ        11.1930   41.3380    9.3970 N.3    56  LYS56      -0.1314
    124  N         17.1290   31.1700   10.1150 N.3    69  GLY69      -0.1210
    125  CA        17.7430   30.7330    8.8610 C.3    69  GLY69       0.1956
    126  C         17.0730   31.2780    7.6290 C.2    69  GLY69       0.2612
    127  O         15.8860   31.5720    7.6330 O.2    69  GLY69      -0.2717
    128  N         17.8500   31.4470    6.5680 N.am   70  GLU70      -0.1965
    129  CA        17.2890   31.9050    5.3230 C.3    70  GLU70       0.1733
    130  C         17.0940   30.6950    4.4000 C.2    70  GLU70       0.2616
    131  O         18.0650   30.0630    3.9800 O.2    70  GLU70      -0.2715
    132  CB        18.2150   32.9490    4.6820 C.3    70  GLU70       0.0429
    133  CG        17.7540   33.3970    3.3000 C.3    70  GLU70       0.1163
    134  CD        18.6280   34.5050    2.7260 C.2    70  GLU70       0.3649
    135  OE1       19.6920   34.7990    3.3090 O.co2  70  GLU70      -0.2457
    136  OE2       18.2470   35.0680    1.6910 O.co2  70  GLU70      -0.2457
    137  N         15.8410   30.3470    4.1080 N.am   71  ILE71      -0.1977
    138  CA        15.6080   29.2280    3.2040 C.3    71  ILE71       0.1596
    139  C         16.1890   29.5690    1.8260 C.2    71  ILE71       0.2287
    140  O         16.0480   30.6910    1.3500 O.2    71  ILE71      -0.2864
    141  CB        14.1030   28.8470    3.1420 C.3    71  ILE71       0.0276
    142  CG1       13.6430   28.4150    4.5320 C.3    71  ILE71       0.0022
    143  CG2       13.8710   27.7810    2.0800 C.3    71  ILE71       0.0022
    144  CD1       14.2990   27.1310    5.0850 C.3    71  ILE71       0.0001
    145  N          4.8520   32.7410    4.3950 N.3   101  ASP101     -0.1225
    146  CA         4.4680   34.1380    4.2170 C.3   101  ASP101      0.1805
    147  C          5.7140   34.9740    3.8940 C.2   101  ASP101      0.2598
    148  O          5.6920   36.2060    4.0300 O.2   101  ASP101     -0.2718
    149  CB         3.8010   34.6570    5.5020 C.3   101  ASP101      0.1424
    150  CG         3.0360   35.9570    5.2900 C.2   101  ASP101      0.3668
    151  OD1        2.4380   36.1150    4.1970 O.co2 101  ASP101     -0.2456
    152  OD2        3.0270   36.7960    6.2310 O.co2 101  ASP101     -0.2456
    153  N          6.7980   34.3290    3.4450 N.am  102  ALA102     -0.1966
    154  CA         8.0460   35.0500    3.1370 C.3   102  ALA102      0.1728
    155  C          7.8960   35.9150    1.8800 C.2   102  ALA102      0.2616
    156  O          7.1000   35.6120    0.9990 O.2   102  ALA102     -0.2715
    157  CB         9.2160   34.0670    2.9420 C.3   102  ALA102      0.0334
    158  N          8.6730   36.9930    1.8210 N.am  103  ALA103     -0.1963
    159  CA         8.7220   37.8450    0.6330 C.3   103  ALA103      0.1728
    160  C         10.1080   38.4800    0.5250 C.2   103  ALA103      0.2616
    161  O         10.8080   38.6180    1.5210 O.2   103  ALA103     -0.2715
    162  CB         7.6190   38.9160    0.6820 C.3   103  ALA103      0.0334
    163  N         10.5140   38.8030   -0.6960 N.am  104  VAL104     -0.1964
    164  CA        11.7910   39.4730   -0.9280 C.3   104  VAL104      0.1712
    165  C         11.5240   40.9760   -1.0050 C.2   104  VAL104      0.2458
    166  O         10.4940   41.3740   -1.5350 O.2   104  VAL104     -0.2730
    167  CB        12.5010   38.9370   -2.1990 C.3   104  VAL104      0.0289
    168  CG1       13.4270   37.7870   -1.8340 C.3   104  VAL104      0.0023
    169  CG2       11.4990   38.4620   -3.2480 C.3   104  VAL104      0.0023
    170  N         12.4350   41.8140   -0.4540 N.am  105  PRO105     -0.2727
    171  CA        12.2770   43.2820   -0.5520 C.3   105  PRO105      0.1402
    172  C         12.0570   43.7520   -1.9870 C.2   105  PRO105      0.2269
    173  O         12.7390   43.2780   -2.8970 O.2   105  PRO105     -0.2865
    174  CB        13.6200   43.8190   -0.0390 C.3   105  PRO105      0.0296
    175  CG        14.1160   42.7370    0.8920 C.3   105  PRO105      0.0237
    176  CD        13.6550   41.4370    0.2920 C.3   105  PRO105      0.0939
    177  N         12.4960   33.1590   -5.0680 N.3   120  LEU120     -0.1245
    178  CA        12.2730   32.8140   -3.6680 C.3   120  LEU120      0.1561
    179  C         11.2770   31.6660   -3.5720 C.2   120  LEU120      0.2260
    180  O         11.4700   30.7340   -2.7840 O.2   120  LEU120     -0.2867
    181  CB        11.7690   34.0250   -2.8780 C.3   120  LEU120      0.0270
    182  CG        11.4290   33.7500   -1.4000 C.3   120  LEU120      0.0019
    183  CD1       12.6200   33.1170   -0.6720 C.3   120  LEU120      0.0001
    184  CD2       11.0270   35.0340   -0.7340 C.3   120  LEU120      0.0001
    185  N         11.9550   28.0470   -1.7970 N.3   124  ILE124     -0.1245
    186  CA        11.1190   27.5190   -0.7320 C.3   124  ILE124      0.1561
    187  C         10.4800   26.2100   -1.1850 C.2   124  ILE124      0.2260
    188  O         10.4190   25.2610   -0.4140 O.2   124  ILE124     -0.2867
    189  CB        10.0390   28.5360   -0.3010 C.3   124  ILE124      0.0252
    190  CG1       10.6970   29.7390    0.3880 C.3   124  ILE124      0.0019
    191  CG2        9.0860   27.8810    0.7040 C.3   124  ILE124      0.0019
    192  CD1        9.7650   30.9390    0.4980 C.3   124  ILE124      0.0001
    193  N          3.2760   32.2090   -0.4300 N.3   141  LYS141     -0.1245
    194  CA         2.9780   33.5280   -1.0020 C.3   141  LYS141      0.1561
    195  C          3.9280   33.8890   -2.1490 C.2   141  LYS141      0.2260
    196  O          5.0990   33.5180   -2.1420 O.2   141  LYS141     -0.2867
    197  CB         3.0270   34.5980    0.0960 C.3   141  LYS141      0.0271
    198  CG         2.4930   35.9650   -0.3360 C.3   141  LYS141      0.0035
    199  CD         2.4770   36.9490    0.8360 C.3   141  LYS141      0.0206
    200  CE         3.8150   37.3070    1.4180 C.3   141  LYS141      0.1093
    201  NZ         3.6410   38.1740    2.6290 N.3   141  LYS141     -0.1314
@<TRIPOS>BOND
     1   177   178    1
     2   178   179    1
     3   178   181    1
     4   179   180    2
     5   169   167    1
     6   173   172    2
     7   181   182    1
     8   167   168    1
     9   167   164    1
    10   195   196    2
    11   195   194    1
    12   172   171    1
    13   185   186    1
    14   166   165    2
    15   182   184    1
    16   182   183    1
    17   187   186    1
    18   187   188    2
    19   165   164    1
    20   165   170   am
    21   194   193    1
    22   194   197    1
    23   164   163    1
    24   186   189    1
    25   163   160   am
    26   171   170    1
    27   171   174    1
    28   170   176    1
    29   198   197    1
    30   198   199    1
    31   189   190    1
    32   189   191    1
    33   174   175    1
    34   176   175    1
    35   190   192    1
    36   160   159    1
    37   160   161    2
    38   159   162    1
    39   159   158    1
    40   199   200    1
    41   156   155    2
    42   140   139    2
    43   200   201    1
    44   136   134   ar
    45   158   155   am
    46   139   138    1
    47   155   154    1
    48   143   141    1
    49   134   133    1
    50   134   135   ar
    51   157   154    1
    52   154   153    1
    53   141   138    1
    54   141   142    1
    55   138   137    1
    56   133   132    1
    57   153   147   am
    58   114   113    1
    59   147   148    2
    60   147   146    1
    61   131   130    2
    62   137   130   am
    63   151   150   ar
    64    18    19    1
    65    18    17    1
    66   146   145    1
    67   146   149    1
    68    20    19    1
    69    36    34    1
    70   130   129    1
    71   142   144    1
    72   132   129    1
    73    35    33    1
    74   113   112    1
    75    17    16    1
    76   150   149    1
    77   150   152   ar
    78   129   128    1
    79   112   111    1
    80    89    87   ar
    81    89    88   ar
    82    33    34    1
    83    33    30    1
    84    16    13    1
    85    15    14    2
    86    87    85   ar
    87    88    86   ar
    88    13    14    1
    89    13    12    1
    90    32    31    2
    91   128   126   am
    92    31    30    1
    93    31    37   am
    94   111   110    1
    95    30    29    1
    96    37    38    1
    97    38    39    1
    98   110   107    1
    99    85    83   ar
   100    85    84   ar
   101    86    83   ar
   102    29    23   am
   103   126   127    2
   104   126   125    1
   105    83    81   ar
   106    40    39    2
   107    84    82   ar
   108    39    41   am
   109    96    94    1
   110   106   107    1
   111   106   100   am
   112    10     9    2
   113   107   108    1
   114    97    95    1
   115    11     8    1
   116    23    22    1
   117    23    24    2
   118   125   124    1
   119     8     9    1
   120     8     7    1
   121    27    26   ar
   122   122   123    1
   123   122   121    1
   124   104   103   ar
   125   105   103   ar
   126    93    92    2
   127    22    21    1
   128    22    25    1
   129    94    95    1
   130    94    91    1
   131   103   102    1
   132    41    42    1
   133    81    82   ar
   134    81    80    1
   135    99   100    1
   136    99    98    1
   137    99   102    1
   138   100   101    2
   139   108   115   am
   140   108   109    2
   141    92    98   am
   142    92    91    1
   143   120   121    1
   144   120   119    1
   145    26    25    1
   146    26    28   ar
   147   115   116    1
   148    91    90    1
   149    50    49    2
   150    42    43    1
   151    42    45    1
   152    80    77    1
   153     6     5    1
   154   119   116    1
   155    47    43   am
   156    47    48    1
   157   116   117    1
   158    43    44    2
   159    45    46    1
   160    49    48    1
   161    49    59   am
   162    51    48    1
   163    51    52    1
   164    77    76    1
   165    77    78    1
   166    54    52   ar
   167    54    56   ar
   168     5     2    1
   169    65    59    1
   170    65    64    1
   171    75    74    1
   172    52    53   ar
   173    76    72   am
   174   117   118    2
   175    59    60    1
   176     3     4    2
   177     3     2    1
   178    56    57   ar
   179    78    79    2
   180     2     1    1
   181    72    73    2
   182    72    71    1
   183    53    55   ar
   184    64    63    1
   185    74    71    1
   186    57    55   ar
   187    57    58    1
   188    70    71    1
   189    70    68   am
   190    60    63    1
   191    60    61    1
   192    66    67    1
   193    66    61   am
   194    67    68    1
   195    68    69    2
   196    61    62    2
