@<TRIPOS>MOLECULE
tmp/2pmcB00.pdb
 109 101 0 0 0
SMALL
GASTEIGER

@<TRIPOS>ATOM
      1  N         -7.5620  -10.8180  -42.9010 N.3    89  ALA89      -0.1245
      2  CA        -6.7530  -10.2750  -43.9930 C.3    89  ALA89       0.1562
      3  C         -7.6010   -9.4900  -45.0140 C.2    89  ALA89       0.2260
      4  O         -7.4690   -9.6850  -46.2290 O.2    89  ALA89      -0.2867
      5  CB        -5.9590  -11.3910  -44.6750 C.3    89  ALA89       0.0290
      6  N         -8.7000   -6.9780  -47.5610 N.3    91  LYS91      -0.1245
      7  CA        -8.0490   -6.1590  -48.5640 C.3    91  LYS91       0.1561
      8  C         -7.9430   -4.7120  -48.0870 C.2    91  LYS91       0.2260
      9  O         -6.9070   -4.0750  -48.2520 O.2    91  LYS91      -0.2867
     10  CB        -8.8270   -6.2220  -49.8780 C.3    91  LYS91       0.0271
     11  CG        -9.1670   -7.6410  -50.3590 C.3    91  LYS91       0.0035
     12  CD       -10.6500   -7.9710  -50.1910 C.3    91  LYS91       0.0206
     13  CE       -11.1500   -8.8210  -51.3590 C.3    91  LYS91       0.1093
     14  NZ       -12.5970   -9.1760  -51.2390 N.3    91  LYS91      -0.1314
     15  N         -5.2580   -4.0830  -45.3340 N.3    94  ILE94      -0.1231
     16  CA        -3.9360   -4.1080  -45.9750 C.3    94  ILE94       0.1692
     17  C         -3.6120   -2.7750  -46.6440 C.2    94  ILE94       0.2591
     18  O         -2.4710   -2.3270  -46.6380 O.2    94  ILE94      -0.2718
     19  CB        -3.8390   -5.2480  -47.0170 C.3    94  ILE94       0.0266
     20  CG1       -4.2380   -6.5830  -46.3760 C.3    94  ILE94       0.0019
     21  CG2       -2.4220   -5.3360  -47.6080 C.3    94  ILE94       0.0020
     22  CD1       -4.2630   -7.7510  -47.3320 C.3    94  ILE94       0.0001
     23  N         -4.6330   -2.1450  -47.2070 N.am   95  ILE95      -0.1980
     24  CA        -4.5000   -0.8260  -47.8190 C.3    95  ILE95       0.1595
     25  C         -4.2210    0.2410  -46.7560 C.2    95  ILE95       0.2287
     26  O         -3.2190    0.9610  -46.8310 O.2    95  ILE95      -0.2864
     27  CB        -5.7700   -0.4680  -48.6420 C.3    95  ILE95       0.0276
     28  CG1       -5.8730   -1.3760  -49.8700 C.3    95  ILE95       0.0022
     29  CG2       -5.7620    1.0060  -49.0520 C.3    95  ILE95       0.0022
     30  CD1       -7.2050   -1.3050  -50.5860 C.3    95  ILE95       0.0001
     31  N         -3.1220    0.0710  -43.7780 N.3    97  ALA97      -0.1231
     32  CA        -1.7780   -0.1060  -43.2250 C.3    97  ALA97       0.1694
     33  C         -0.6730    0.3650  -44.1700 C.2    97  ALA97       0.2591
     34  O          0.2170    1.1040  -43.7600 O.2    97  ALA97      -0.2718
     35  CB        -1.5550   -1.5540  -42.8120 C.3    97  ALA97       0.0304
     36  N         -0.7240   -0.0570  -45.4270 N.am   98  ALA98      -0.1980
     37  CA         0.2530    0.4100  -46.4010 C.3    98  ALA98       0.1597
     38  C          0.2010    1.9340  -46.4550 C.2    98  ALA98       0.2287
     39  O          1.2320    2.5920  -46.3490 O.2    98  ALA98      -0.2864
     40  CB         0.0090   -0.2060  -47.7850 C.3    98  ALA98       0.0319
     41  N          2.8260    1.1460  -42.7090 N.3   102  ALA102     -0.1231
     42  CA         3.1050   -0.1380  -42.0730 C.3   102  ALA102      0.1694
     43  C          4.2640   -0.7910  -42.7990 C.2   102  ALA102      0.2593
     44  O          4.2520   -0.8530  -44.0140 O.2   102  ALA102     -0.2718
     45  CB         1.8700   -1.0430  -42.1220 C.3   102  ALA102      0.0304
     46  N          5.2580   -1.2710  -42.0560 N.am  103  SER103     -0.1938
     47  CA         6.3930   -1.9790  -42.6510 C.3   103  SER103      0.2055
     48  C          5.9740   -3.3290  -43.1800 C.2   103  SER103      0.2644
     49  O          6.6350   -3.8950  -44.0370 O.2   103  SER103     -0.2714
     50  CB         7.4910   -2.2080  -41.6250 C.3   103  SER103      0.2130
     51  OG         7.7790   -1.0320  -40.9020 O.3   103  SER103     -0.2179
     52  N          4.8840   -3.8570  -42.6430 N.am  104  GLY104     -0.1939
     53  CA         4.4660   -5.2030  -42.9360 C.3   104  GLY104      0.2014
     54  C          3.2370   -5.5700  -42.1530 C.2   104  GLY104      0.2638
     55  O          2.7310   -4.7900  -41.3410 O.2   104  GLY104     -0.2714
     56  N          2.7960   -6.8010  -42.3520 N.am  105  TYR105     -0.1973
     57  CA         1.4200   -7.1700  -42.0900 C.3   105  TYR105      0.1639
     58  C          1.2930   -8.6670  -41.8660 C.2   105  TYR105      0.2290
     59  O          1.6460   -9.4510  -42.7430 O.2   105  TYR105     -0.2864
     60  CB         0.6400   -6.8160  -43.3300 C.3   105  TYR105      0.0560
     61  CG        -0.8240   -6.7600  -43.1590 C.ar  105  TYR105     -0.0198
     62  CD1       -1.6440   -7.7550  -43.6940 C.ar  105  TYR105     -0.0009
     63  CD2       -1.4170   -5.6830  -42.4990 C.ar  105  TYR105     -0.0009
     64  CE1       -3.0390   -7.6790  -43.5580 C.ar  105  TYR105      0.0417
     65  CE2       -2.7990   -5.5890  -42.3620 C.ar  105  TYR105      0.0417
     66  CZ        -3.6030   -6.5820  -42.8900 C.ar  105  TYR105      0.1957
     67  OH        -4.9610   -6.4780  -42.7330 O.3   105  TYR105     -0.2866
     68  N         -1.4350  -11.8120  -40.1570 N.3   107  VAL107     -0.1245
     69  CA        -2.7360  -12.2120  -39.6160 C.3   107  VAL107      0.1561
     70  C         -2.5650  -13.1940  -38.4630 C.2   107  VAL107      0.2260
     71  O         -1.6720  -14.0340  -38.4940 O.2   107  VAL107     -0.2867
     72  CB        -3.6200  -12.8990  -40.6850 C.3   107  VAL107      0.0252
     73  CG1       -5.0290  -13.1090  -40.1580 C.3   107  VAL107      0.0019
     74  CG2       -3.6400  -12.0920  -41.9750 C.3   107  VAL107      0.0019
     75  N          7.9900  -12.5280  -42.2050 N.3   118  LYS118     -0.1245
     76  CA         7.5810  -11.1590  -42.1500 C.3   118  LYS118      0.1561
     77  C          8.7100  -10.3140  -41.5920 C.2   118  LYS118      0.2260
     78  O          9.0690   -9.2850  -42.1660 O.2   118  LYS118     -0.2867
     79  CB         6.3250  -11.0520  -41.2960 C.3   118  LYS118      0.0271
     80  CG         5.1790  -11.8760  -41.8210 C.3   118  LYS118      0.0035
     81  CD         4.6810  -11.3620  -43.1740 C.3   118  LYS118      0.0206
     82  CE         3.4270  -12.1070  -43.6380 C.3   118  LYS118      0.1093
     83  NZ         2.7550  -11.4690  -44.8290 N.3   118  LYS118     -0.1314
     84  N         11.4860  -10.3180  -44.1140 N.3   121  LYS121     -0.1231
     85  CA        11.0040   -9.4410  -45.1810 C.3   121  LYS121      0.1693
     86  C         11.2970   -7.9760  -44.8620 C.2   121  LYS121      0.2591
     87  O         11.9770   -7.2960  -45.6270 O.2   121  LYS121     -0.2718
     88  CB         9.5070   -9.6490  -45.4260 C.3   121  LYS121      0.0285
     89  CG         9.1680  -10.2340  -46.7840 C.3   121  LYS121      0.0035
     90  CD         7.6650  -10.4530  -46.9370 C.3   121  LYS121      0.0206
     91  CE         7.2720  -10.7170  -48.3970 C.3   121  LYS121      0.1093
     92  NZ         7.9360  -11.9240  -48.9860 N.3   121  LYS121     -0.1314
     93  N         10.8060   -7.5140  -43.7110 N.am  122  ILE122     -0.1980
     94  CA        11.0200   -6.1360  -43.2590 C.3   122  ILE122      0.1595
     95  C         12.5040   -5.7680  -43.0490 C.2   122  ILE122      0.2287
     96  O         12.9140   -4.6470  -43.3830 O.2   122  ILE122     -0.2864
     97  CB        10.2190   -5.8280  -41.9910 C.3   122  ILE122      0.0276
     98  CG1        8.7300   -5.8560  -42.3010 C.3   122  ILE122      0.0022
     99  CG2       10.5960   -4.4710  -41.4340 C.3   122  ILE122      0.0022
    100  CD1        7.8950   -6.0730  -41.0970 C.3   122  ILE122      0.0001
    101  N         14.4980   -4.6610  -46.3300 N.3   125  LYS125     -0.1245
    102  CA        14.0800   -3.4630  -47.0140 C.3   125  LYS125      0.1561
    103  C         14.8330   -2.3070  -46.3800 C.2   125  LYS125      0.2260
    104  O         15.3280   -1.4260  -47.0770 O.2   125  LYS125     -0.2867
    105  CB        12.5600   -3.2860  -46.8820 C.3   125  LYS125      0.0271
    106  CG        11.9800   -2.0290  -47.5320 C.3   125  LYS125      0.0035
    107  CD        11.3710   -2.3020  -48.9140 C.3   125  LYS125      0.0206
    108  CE        10.3230   -1.2180  -49.2870 C.3   125  LYS125      0.1093
    109  NZ         9.8900   -1.2740  -50.7260 N.3   125  LYS125     -0.1314
@<TRIPOS>BOND
     1    13    14    1
     2    13    12    1
     3   109   108    1
     4    30    28    1
     5    11    12    1
     6    11    10    1
     7    10     7    1
     8    28    27    1
     9   108   107    1
    10    29    27    1
    11    92    91    1
    12   107   106    1
    13    27    24    1
    14     7     8    1
    15     7     6    1
    16    91    90    1
    17     9     8    2
    18    24    23    1
    19    24    25    1
    20    40    37    1
    21    21    19    1
    22   106   105    1
    23    22    20    1
    24    23    17   am
    25   104   103    2
    26    19    20    1
    27    19    16    1
    28   102   105    1
    29   102   103    1
    30   102   101    1
    31    90    89    1
    32    26    25    2
    33    89    88    1
    34    17    18    2
    35    17    16    1
    36    38    37    1
    37    38    39    2
    38    37    36    1
    39     4     3    2
    40    16    15    1
    41    87    86    2
    42    36    33   am
    43    88    85    1
    44    85    86    1
    45    85    84    1
    46     3     2    1
    47    86    93   am
    48    83    82    1
    49     5     2    1
    50    33    34    2
    51    33    32    1
    52    49    48    2
    53    44    43    2
    54     2     1    1
    55    31    32    1
    56    93    94    1
    57    62    64   ar
    58    62    61   ar
    59    82    81    1
    60    64    66   ar
    61    96    95    2
    62    60    61    1
    63    60    57    1
    64    94    95    1
    65    94    97    1
    66    32    35    1
    67    48    47    1
    68    48    52   am
    69    81    80    1
    70    61    63   ar
    71    53    52    1
    72    53    54    1
    73    66    67    1
    74    66    65   ar
    75    43    42    1
    76    43    46   am
    77    59    58    2
    78    41    42    1
    79    47    46    1
    80    47    50    1
    81    63    65   ar
    82    56    54   am
    83    56    57    1
    84    98    97    1
    85    98   100    1
    86    75    76    1
    87    78    77    2
    88    54    55    2
    89    76    77    1
    90    76    79    1
    91    45    42    1
    92    57    58    1
    93    97    99    1
    94    74    72    1
    95    80    79    1
    96    50    51    1
    97    72    73    1
    98    72    69    1
    99    68    69    1
   100    69    70    1
   101    71    70    2
