@<TRIPOS>MOLECULE
tmp/2pmdB01.pdb
 99 94 0 0 0
SMALL
GASTEIGER

@<TRIPOS>ATOM
      1  N         41.3450  -14.4710   -1.3360 N.3   256  PRO256     -0.2102
      2  CA        40.9390  -14.2270   -2.7300 C.3   256  PRO256      0.1504
      3  C         40.5000  -12.7770   -2.9440 C.2   256  PRO256      0.2576
      4  O         40.5410  -12.2490   -4.0520 O.2   256  PRO256     -0.2718
      5  CB        39.7680  -15.1940   -2.9310 C.3   256  PRO256      0.0282
      6  CG        40.0310  -16.2840   -1.9610 C.3   256  PRO256      0.0208
      7  CD        40.5150  -15.5340   -0.7420 C.3   256  PRO256      0.0893
      8  N         40.0630  -12.1450   -1.8680 N.am  257  GLY257     -0.1943
      9  CA        39.6340  -10.7730   -1.9720 C.3   257  GLY257      0.2014
     10  C         38.1410  -10.6010   -1.8080 C.2   257  GLY257      0.2639
     11  O         37.4720  -11.3560   -1.0990 O.2   257  GLY257     -0.2714
     12  N         37.6450   -9.5760   -2.4910 N.am  258  LEU258     -0.1963
     13  CA        36.2510   -9.1820   -2.4980 C.3   258  LEU258      0.1728
     14  C         35.4200   -9.9240   -3.5430 C.2   258  LEU258      0.2616
     15  O         35.7900   -9.9870   -4.7110 O.2   258  LEU258     -0.2715
     16  CB        36.1750   -7.6800   -2.7570 C.3   258  LEU258      0.0311
     17  CG        34.8260   -7.0900   -3.1460 C.3   258  LEU258      0.0022
     18  CD1       33.8560   -7.2010   -1.9830 C.3   258  LEU258      0.0001
     19  CD2       35.0240   -5.6520   -3.5440 C.3   258  LEU258      0.0001
     20  N         34.2870  -10.4710   -3.1120 N.am  259  ARG259     -0.1977
     21  CA        33.3910  -11.2000   -3.9940 C.3   259  ARG259      0.1597
     22  C         32.4240  -10.2730   -4.6770 C.2   259  ARG259      0.2287
     23  O         31.7200   -9.4980   -4.0300 O.2   259  ARG259     -0.2864
     24  CB        32.5870  -12.2360   -3.2260 C.3   259  ARG259      0.0334
     25  CG        31.4900  -12.8580   -4.0520 C.3   259  ARG259      0.0492
     26  CD        31.0890  -14.1830   -3.4520 C.3   259  ARG259      0.2205
     27  NE        30.1320  -14.9160   -4.2790 N.pl3 259  ARG259     -0.0865
     28  CZ        28.8230  -14.6810   -4.3030 C.cat 259  ARG259      0.5346
     29  NH1       28.3020  -13.7240   -3.5410 N.pl3 259  ARG259      0.1354
     30  NH2       28.0370  -15.4170   -5.0790 N.pl3 259  ARG259      0.1354
     31  N         36.2720  -12.9960   -7.8930 N.3   268  TYR268     -0.1241
     32  CA        36.8480  -12.3210   -6.7440 C.3   268  TYR268      0.1605
     33  C         37.8960  -11.2770   -7.0740 C.2   268  TYR268      0.2264
     34  O         38.8490  -11.5400   -7.7930 O.2   268  TYR268     -0.2867
     35  CB        37.4280  -13.3420   -5.7640 C.3   268  TYR268      0.0534
     36  CG        36.3810  -14.0220   -4.9180 C.ar  268  TYR268     -0.0201
     37  CD1       35.5970  -15.0490   -5.4300 C.ar  268  TYR268     -0.0009
     38  CD2       36.1340  -13.5980   -3.6140 C.ar  268  TYR268     -0.0009
     39  CE1       34.5820  -15.6380   -4.6620 C.ar  268  TYR268      0.0417
     40  CE2       35.1250  -14.1760   -2.8400 C.ar  268  TYR268      0.0417
     41  CZ        34.3520  -15.1940   -3.3690 C.ar  268  TYR268      0.1957
     42  OH        33.3460  -15.7530   -2.6090 O.3   268  TYR268     -0.2866
     43  N         41.5550   -7.3670   -2.4950 N.3   271  ILE271     -0.1245
     44  CA        41.3900   -6.1060   -1.7950 C.3   271  ILE271      0.1561
     45  C         42.7290   -5.5150   -1.4300 C.2   271  ILE271      0.2260
     46  O         43.5590   -6.1830   -0.8250 O.2   271  ILE271     -0.2867
     47  CB        40.5840   -6.3050   -0.5020 C.3   271  ILE271      0.0252
     48  CG1       39.2600   -6.9980   -0.8130 C.3   271  ILE271      0.0019
     49  CG2       40.3220   -4.9750    0.1470 C.3   271  ILE271      0.0019
     50  CD1       38.5740   -7.5380    0.4050 C.3   271  ILE271      0.0001
     51  N         33.9480   -3.7220    5.1590 N.3   304  LEU304     -0.1245
     52  CA        34.6570   -4.8820    4.6230 C.3   304  LEU304      0.1561
     53  C         35.1300   -5.9070    5.6510 C.2   304  LEU304      0.2260
     54  O         35.2020   -7.0960    5.3460 O.2   304  LEU304     -0.2867
     55  CB        35.8580   -4.4010    3.7960 C.3   304  LEU304      0.0270
     56  CG        35.6430   -4.1020    2.3050 C.3   304  LEU304      0.0019
     57  CD1       34.2250   -3.6400    2.0600 C.3   304  LEU304      0.0001
     58  CD2       36.6330   -3.0510    1.8510 C.3   304  LEU304      0.0001
     59  N         34.1440  -10.5770    8.3560 N.3   309  ASN309     -0.1225
     60  CA        33.8010  -10.7220    6.9600 C.3   309  ASN309      0.1785
     61  C         34.8810  -11.3990    6.1370 C.2   309  ASN309      0.2597
     62  O         34.5810  -12.1850    5.2340 O.2   309  ASN309     -0.2718
     63  CB        33.5040   -9.3740    6.3320 C.3   309  ASN309      0.1169
     64  CG        32.9800   -9.5120    4.9210 C.2   309  ASN309      0.2627
     65  OD1       33.2900   -8.7050    4.0490 O.2   309  ASN309     -0.2716
     66  ND2       32.1720  -10.5420    4.6900 N.am  309  ASN309     -0.0877
     67  N         36.1390  -11.1000    6.4490 N.am  310  LEU310     -0.1966
     68  CA        37.2750  -11.6440    5.7000 C.3   310  LEU310      0.1728
     69  C         37.9030  -12.9290    6.2570 C.2   310  LEU310      0.2616
     70  O         39.0060  -13.3220    5.8560 O.2   310  LEU310     -0.2715
     71  CB        38.3490  -10.5570    5.5740 C.3   310  LEU310      0.0311
     72  CG        37.9010   -9.2330    4.9440 C.3   310  LEU310      0.0022
     73  CD1       39.0630   -8.2900    4.8940 C.3   310  LEU310      0.0001
     74  CD2       37.3780   -9.4610    3.5440 C.3   310  LEU310      0.0001
     75  N         37.2140  -13.5890    7.1760 N.am  311  LEU311     -0.1977
     76  CA        37.7490  -14.8140    7.7410 C.3   311  LEU311      0.1596
     77  C         38.0670  -15.8340    6.6450 C.2   311  LEU311      0.2287
     78  O         37.2670  -16.0550    5.7330 O.2   311  LEU311     -0.2864
     79  CB        36.7530  -15.4130    8.7330 C.3   311  LEU311      0.0297
     80  CG        37.0240  -16.8560    9.1710 C.3   311  LEU311      0.0022
     81  CD1       38.3290  -16.9410    9.9330 C.3   311  LEU311      0.0001
     82  CD2       35.8890  -17.3300   10.0300 C.3   311  LEU311      0.0001
     83  N         40.6390  -15.5870    4.6030 N.3   313  SER313     -0.1217
     84  CA        41.4370  -14.9690    3.5620 C.3   313  SER313      0.1889
     85  C         42.8990  -15.0670    3.9310 C.2   313  SER313      0.2288
     86  O         43.2470  -15.6150    4.9850 O.2   313  SER313     -0.2866
     87  CB        41.0640  -13.4980    3.4170 C.3   313  SER313      0.2089
     88  OG        39.7190  -13.3690    3.0020 O.3   313  SER313     -0.2183
     89  N         34.3200  -21.7090   -3.9790 N.3   383  ARG383     -0.1245
     90  CA        34.9380  -20.3970   -3.8030 C.3   383  ARG383      0.1563
     91  C         36.4360  -20.5700   -4.0430 C.2   383  ARG383      0.2260
     92  O         37.0270  -21.5480   -3.5980 O.2   383  ARG383     -0.2867
     93  CB        34.6660  -19.9030   -2.3780 C.3   383  ARG383      0.0307
     94  CG        35.3380  -18.5900   -1.9770 C.3   383  ARG383      0.0489
     95  CD        36.6650  -18.8150   -1.2310 C.3   383  ARG383      0.2205
     96  NE        36.5210  -19.6440   -0.0280 N.pl3 383  ARG383     -0.0865
     97  CZ        35.7760  -19.3240    1.0330 C.cat 383  ARG383      0.5346
     98  NH1       35.0950  -18.1800    1.0520 N.pl3 383  ARG383      0.1354
     99  NH2       35.7050  -20.1490    2.0780 N.pl3 383  ARG383      0.1354
@<TRIPOS>BOND
     1    31    32    1
     2    34    33    2
     3    33    32    1
     4    32    35    1
     5    35    36    1
     6    37    36   ar
     7    37    39   ar
     8    30    28    1
     9    36    38   ar
    10    15    14    2
    11    22    23    2
    12    22    21    1
    13    39    41   ar
    14    28    27    2
    15    28    29    1
    16    27    26    1
    17    25    26    1
    18    25    24    1
    19     4     3    2
    20    91    90    1
    21    91    92    2
    22    21    24    1
    23    21    20    1
    24    89    90    1
    25    90    93    1
    26    38    40   ar
    27    19    17    1
    28    14    20   am
    29    14    13    1
    30    41    40   ar
    31    41    42    1
    32    17    16    1
    33    17    18    1
    34     3     2    1
    35     3     8   am
    36     5     2    1
    37     5     6    1
    38    16    13    1
    39     2     1    1
    40    13    12    1
    41    43    44    1
    42    12    10   am
    43    93    94    1
    44    94    95    1
    45     9     8    1
    46     9    10    1
    47     6     7    1
    48    10    11    2
    49    44    45    1
    50    44    47    1
    51    45    46    2
    52     1     7    1
    53    95    96    1
    54    48    47    1
    55    48    50    1
    56    47    49    1
    57    96    97    2
    58    97    98    1
    59    97    99    1
    60    58    56    1
    61    57    56    1
    62    56    55    1
    63    88    87    1
    64    87    84    1
    65    74    72    1
    66    84    85    1
    67    84    83    1
    68    55    52    1
    69    85    86    2
    70    65    64    2
    71    52    51    1
    72    52    53    1
    73    66    64   am
    74    73    72    1
    75    64    63    1
    76    72    71    1
    77    62    61    2
    78    54    53    2
    79    71    68    1
    80    68    69    1
    81    68    67    1
    82    78    77    2
    83    70    69    2
    84    61    67   am
    85    61    60    1
    86    69    75   am
    87    63    60    1
    88    77    76    1
    89    60    59    1
    90    75    76    1
    91    76    79    1
    92    79    80    1
    93    80    81    1
    94    80    82    1
