@<TRIPOS>MOLECULE
tmp/2pmlA00.pdb
 167 156 0 0 0
SMALL
GASTEIGER

@<TRIPOS>ATOM
      1  N         -9.7640    0.1540  -22.2230 N.3    39  LEU39      -0.1231
      2  CA       -10.7750    1.0510  -22.7900 C.3    39  LEU39       0.1693
      3  C        -10.2000    1.9870  -23.8340 C.2    39  LEU39       0.2592
      4  O        -10.8580    2.3100  -24.8240 O.2    39  LEU39      -0.2718
      5  CB       -11.4420    1.8830  -21.6850 C.3    39  LEU39       0.0284
      6  CG       -12.2780    1.1180  -20.6550 C.3    39  LEU39       0.0019
      7  CD1      -12.7740    2.0830  -19.5780 C.3    39  LEU39       0.0001
      8  CD2      -13.4450    0.3480  -21.3310 C.3    39  LEU39       0.0001
      9  N         -8.9750    2.4280  -23.5890 N.am   40  ASN40      -0.1974
     10  CA        -8.3470    3.4610  -24.3760 C.3    40  ASN40       0.1688
     11  C         -6.8410    3.3260  -24.2720 C.2    40  ASN40       0.2292
     12  O         -6.2670    3.5000  -23.1860 O.2    40  ASN40      -0.2864
     13  CB        -8.7960    4.8400  -23.8730 C.3    40  ASN40       0.1181
     14  CG        -8.2320    5.9750  -24.6980 C.2    40  ASN40       0.2629
     15  OD1       -7.0810    6.3680  -24.5290 O.2    40  ASN40      -0.2716
     16  ND2       -9.0480    6.5150  -25.5940 N.am   40  ASN40      -0.0877
     17  N         -3.8730    5.1660  -24.9230 N.3    42  GLY42      -0.1210
     18  CA        -3.2140    6.4360  -25.1910 C.3    42  GLY42       0.1956
     19  C         -1.8300    6.2160  -25.7830 C.2    42  GLY42       0.2611
     20  O         -1.4130    5.0760  -26.0310 O.2    42  GLY42      -0.2717
     21  N         -1.1160    7.3120  -26.0180 N.am   43  LYS43      -0.1979
     22  CA         0.2560    7.2310  -26.5200 C.3    43  LYS43       0.1596
     23  C          1.2010    6.7840  -25.4040 C.2    43  LYS43       0.2287
     24  O          2.2290    6.1500  -25.6700 O.2    43  LYS43      -0.2864
     25  CB         0.6980    8.5780  -27.1030 C.3    43  LYS43       0.0298
     26  CG         0.0790    8.9040  -28.4620 C.3    43  LYS43       0.0038
     27  CD        -0.0850   10.4160  -28.6720 C.3    43  LYS43       0.0206
     28  CE        -0.9440   10.7170  -29.9010 C.3    43  LYS43       0.1093
     29  NZ        -0.3610   10.1560  -31.1680 N.3    43  LYS43      -0.1314
     30  N         -0.1400    6.7010  -21.3130 N.3    45  ASN45      -0.1240
     31  CA        -0.8010    6.1570  -20.1270 C.3    45  ASN45       0.1653
     32  C         -1.6190    4.8840  -20.3610 C.2    45  ASN45       0.2266
     33  O         -1.1010    3.7910  -20.1110 O.2    45  ASN45      -0.2867
     34  CB        -1.5620    7.2330  -19.3210 C.3    45  ASN45       0.1155
     35  CG        -2.3580    8.1990  -20.1990 C.2    45  ASN45       0.2627
     36  OD1       -3.0450    7.7920  -21.1400 O.2    45  ASN45      -0.2716
     37  ND2       -2.2860    9.4840  -19.8710 N.am   45  ASN45      -0.0877
     38  N         -5.9760    3.3730  -20.1470 N.3    47  ILE47      -0.1245
     39  CA        -6.9940    3.0850  -19.1440 C.3    47  ILE47       0.1561
     40  C         -7.4710    1.6440  -19.2670 C.2    47  ILE47       0.2260
     41  O         -7.6800    1.1480  -20.3770 O.2    47  ILE47      -0.2867
     42  CB        -8.1900    4.0150  -19.2920 C.3    47  ILE47       0.0252
     43  CG1       -7.8370    5.4040  -18.7810 C.3    47  ILE47       0.0019
     44  CG2       -9.3920    3.4980  -18.5280 C.3    47  ILE47       0.0019
     45  CD1       -7.5800    6.3750  -19.8710 C.3    47  ILE47       0.0001
     46  N        -12.2290    1.8630  -13.7870 N.3    58  ALA58      -0.1245
     47  CA       -11.3100    2.1980  -14.8670 C.3    58  ALA58       0.1562
     48  C         -9.9950    2.5980  -14.2300 C.2    58  ALA58       0.2260
     49  O         -9.9080    3.6430  -13.5760 O.2    58  ALA58      -0.2867
     50  CB       -11.8590    3.3250  -15.7200 C.3    58  ALA58       0.0290
     51  N         -6.1470    3.7350  -14.5760 N.3    60  LYS60      -0.1245
     52  CA        -5.2540    4.3880  -15.5090 C.3    60  LYS60       0.1561
     53  C         -3.8270    4.0140  -15.1540 C.2    60  LYS60       0.2260
     54  O         -3.3640    4.3250  -14.0520 O.2    60  LYS60      -0.2867
     55  CB        -5.4500    5.8920  -15.4340 C.3    60  LYS60       0.0271
     56  CG        -4.7450    6.6740  -16.5010 C.3    60  LYS60       0.0035
     57  CD        -5.2240    8.1070  -16.4680 C.3    60  LYS60       0.0206
     58  CE        -4.7610    8.9150  -17.6910 C.3    60  LYS60       0.1093
     59  NZ        -5.0320   10.3950  -17.4420 N.3    60  LYS60      -0.1314
     60  N        -13.8530   13.4560  -11.5330 N.3   106  LEU106     -0.1245
     61  CA       -13.3860   12.0950  -11.3390 C.3   106  LEU106      0.1561
     62  C        -12.2850   12.1360  -10.2870 C.2   106  LEU106      0.2260
     63  O        -11.2820   12.8720  -10.4310 O.2   106  LEU106     -0.2867
     64  CB       -12.8790   11.4910  -12.6450 C.3   106  LEU106      0.0270
     65  CG       -12.9410    9.9640  -12.7150 C.3   106  LEU106      0.0019
     66  CD1      -14.3720    9.4760  -12.8130 C.3   106  LEU106      0.0001
     67  CD2      -12.1240    9.4160  -13.8700 C.3   106  LEU106      0.0001
     68  N        -10.3460    4.4280  -10.5050 N.3   122  TYR122     -0.1227
     69  CA       -11.4300    5.3610  -10.6990 C.3   122  TYR122      0.1736
     70  C        -12.6860    4.5660  -10.8140 C.2   122  TYR122      0.2595
     71  O        -12.6380    3.4060  -11.2300 O.2   122  TYR122     -0.2718
     72  CB       -11.2510    6.1350  -12.0080 C.3   122  TYR122      0.0548
     73  CG       -10.1690    7.1880  -12.0100 C.ar  122  TYR122     -0.0200
     74  CD1       -9.1220    7.1320  -12.9360 C.ar  122  TYR122     -0.0009
     75  CD2      -10.2010    8.2570  -11.1130 C.ar  122  TYR122     -0.0009
     76  CE1       -8.1260    8.1240  -12.9640 C.ar  122  TYR122      0.0417
     77  CE2       -9.2130    9.2420  -11.1240 C.ar  122  TYR122      0.0417
     78  CZ        -8.1830    9.1690  -12.0430 C.ar  122  TYR122      0.1957
     79  OH        -7.2160   10.1540  -12.0600 O.3   122  TYR122     -0.2866
     80  N        -13.8150    5.1800  -10.4680 N.am  123  GLU123     -0.1965
     81  CA       -15.1100    4.5730  -10.7400 C.3   123  GLU123      0.1733
     82  C        -15.2230    4.4610  -12.2440 C.2   123  GLU123      0.2616
     83  O        -14.5290    5.1600  -12.9630 O.2   123  GLU123     -0.2715
     84  CB       -16.2480    5.4320  -10.1940 C.3   123  GLU123      0.0429
     85  CG       -16.5480    6.6620  -11.0190 C.3   123  GLU123      0.1163
     86  CD       -17.5710    7.5520  -10.3620 C.2   123  GLU123      0.3649
     87  OE1      -17.2020    8.6860   -9.9710 O.co2 123  GLU123     -0.2457
     88  OE2      -18.7330    7.1130  -10.2180 O.co2 123  GLU123     -0.2457
     89  N        -16.0730    3.5740  -12.7300 N.am  124  TYR124     -0.1960
     90  CA       -16.2410    3.4680  -14.1670 C.3   124  TYR124      0.1771
     91  C        -17.4950    4.2170  -14.6010 C.2   124  TYR124      0.2619
     92  O        -18.6030    3.9040  -14.1560 O.2   124  TYR124     -0.2715
     93  CB       -16.2360    2.0120  -14.6140 C.3   124  TYR124      0.0574
     94  CG       -16.6520    1.7990  -16.0390 C.ar  124  TYR124     -0.0198
     95  CD1      -15.9320    2.3600  -17.0960 C.ar  124  TYR124     -0.0009
     96  CD2      -17.7620    1.0180  -16.3390 C.ar  124  TYR124     -0.0009
     97  CE1      -16.3190    2.1420  -18.4120 C.ar  124  TYR124      0.0417
     98  CE2      -18.1500    0.8080  -17.6360 C.ar  124  TYR124      0.0417
     99  CZ       -17.4300    1.3710  -18.6670 C.ar  124  TYR124      0.1957
    100  OH       -17.8480    1.1490  -19.9600 O.3   124  TYR124     -0.2866
    101  N        -17.2840    5.2250  -15.4460 N.am  125  MET125     -0.1977
    102  CA       -18.3480    6.0870  -15.9420 C.3   125  MET125      0.1605
    103  C        -18.8970    5.4520  -17.1930 C.2   125  MET125      0.2287
    104  O        -18.4380    5.7380  -18.3110 O.2   125  MET125     -0.2864
    105  CB       -17.8200    7.4930  -16.2410 C.3   125  MET125      0.0413
    106  CG       -17.1640    8.1790  -15.0330 C.3   125  MET125      0.0598
    107  SD       -18.3390    8.6140  -13.7570 S.3   125  MET125     -0.1393
    108  CE       -19.0400   10.1000  -14.4920 C.3   125  MET125      0.0692
    109  N        -19.1510    6.7440  -20.7910 N.3   128  ASP128     -0.1225
    110  CA       -17.9310    7.2790  -21.4130 C.3   128  ASP128      0.1805
    111  C        -18.0820    8.8050  -21.5530 C.2   128  ASP128      0.2598
    112  O        -18.7830    9.4090  -20.7480 O.2   128  ASP128     -0.2718
    113  CB       -17.6680    6.5320  -22.7410 C.3   128  ASP128      0.1424
    114  CG       -16.3390    6.9030  -23.3920 C.2   128  ASP128      0.3668
    115  OD1      -15.4670    7.4450  -22.6960 O.co2 128  ASP128     -0.2456
    116  OD2      -16.1800    6.6600  -24.6220 O.co2 128  ASP128     -0.2456
    117  N        -17.4550    9.4320  -22.5440 N.am  129  SER129     -0.1952
    118  CA       -17.4910   10.8930  -22.6540 C.3   129  SER129      0.1924
    119  C        -18.7300   11.4130  -23.3940 C.2   129  SER129      0.2314
    120  O        -19.3030   10.7170  -24.2370 O.2   129  SER129     -0.2863
    121  CB       -16.2200   11.4100  -23.3400 C.3   129  SER129      0.2116
    122  OG       -16.1580   10.9970  -24.7000 O.3   129  SER129     -0.2180
    123  N        -12.3020   19.5410  -22.5780 N.3   179  LYS179     -0.1245
    124  CA       -12.8150   19.1330  -23.8840 C.3   179  LYS179      0.1561
    125  C        -13.8240   17.9740  -23.7600 C.2   179  LYS179      0.2260
    126  O        -13.8300   17.2810  -22.7400 O.2   179  LYS179     -0.2867
    127  CB       -11.6670   18.8390  -24.8610 C.3   179  LYS179      0.0271
    128  CG       -10.5920   17.8180  -24.4440 C.3   179  LYS179      0.0035
    129  CD        -9.4090   17.9510  -25.4170 C.3   179  LYS179      0.0206
    130  CE        -8.4790   16.7740  -25.4320 C.3   179  LYS179      0.1093
    131  NZ        -8.2830   16.2700  -24.0560 N.3   179  LYS179     -0.1314
    132  N        -13.9960   14.8940  -24.7380 N.3   181  SER181     -0.1202
    133  CA       -13.4150   13.6110  -24.3550 C.3   181  SER181      0.2020
    134  C        -13.0890   13.5110  -22.8620 C.2   181  SER181      0.2618
    135  O        -12.8870   12.4090  -22.3530 O.2   181  SER181     -0.2717
    136  CB       -12.1810   13.2780  -25.2270 C.3   181  SER181      0.2103
    137  OG       -10.9870   13.8290  -24.6850 O.3   181  SER181     -0.2182
    138  N        -13.0690   14.6620  -22.1770 N.am  182  ASN182     -0.1974
    139  CA       -12.7770   14.7690  -20.7400 C.3   182  ASN182      0.1688
    140  C        -13.9730   14.9910  -19.8210 C.2   182  ASN182      0.2292
    141  O        -13.7940   15.0990  -18.6000 O.2   182  ASN182     -0.2864
    142  CB       -11.7730   15.8970  -20.4860 C.3   182  ASN182      0.1181
    143  CG       -10.3670   15.5290  -20.9090 C.2   182  ASN182      0.2629
    144  OD1      -10.0230   14.3470  -21.0180 O.2   182  ASN182     -0.2716
    145  ND2       -9.5520   16.5360  -21.1670 N.am  182  ASN182     -0.0877
    146  N        -17.0080   13.1070  -18.4910 N.3   184  LEU184     -0.1245
    147  CA       -17.5230   11.7360  -18.4890 C.3   184  LEU184      0.1561
    148  C        -18.9000   11.6680  -17.8770 C.2   184  LEU184      0.2260
    149  O        -19.2180   12.4330  -16.9670 O.2   184  LEU184     -0.2867
    150  CB       -16.5510   10.7910  -17.7780 C.3   184  LEU184      0.0270
    151  CG       -15.0790   10.8080  -18.2290 C.3   184  LEU184      0.0019
    152  CD1      -14.2610    9.7970  -17.4250 C.3   184  LEU184      0.0001
    153  CD2      -14.9570   10.5410  -19.7330 C.3   184  LEU184      0.0001
    154  N        -12.6600   15.2960  -15.8610 N.3   194  SER194     -0.1202
    155  CA       -11.5640   14.3550  -15.6810 C.3   194  SER194      0.2020
    156  C        -10.3230   14.7170  -16.4990 C.2   194  SER194      0.2618
    157  O        -10.3200   15.7070  -17.2340 O.2   194  SER194     -0.2717
    158  CB       -12.0170   12.9530  -16.0560 C.3   194  SER194      0.2103
    159  OG       -12.2430   12.9110  -17.4450 O.3   194  SER194     -0.2182
    160  N         -9.2960   13.8700  -16.3590 N.am  195  ASP195     -0.1973
    161  CA        -7.9360   14.0540  -16.8930 C.3   195  ASP195      0.1709
    162  C         -7.2840   15.3810  -16.5560 C.2   195  ASP195      0.2293
    163  O         -7.4210   16.3810  -17.2660 O.2   195  ASP195     -0.2864
    164  CB        -7.8190   13.7990  -18.4000 C.3   195  ASP195      0.1436
    165  CG        -6.3660   13.7820  -18.8600 C.2   195  ASP195      0.3671
    166  OD1       -5.4470   13.6520  -18.0090 O.co2 195  ASP195     -0.2456
    167  OD2       -6.1140   13.8930  -20.0680 O.co2 195  ASP195     -0.2456
@<TRIPOS>BOND
     1    29    28    1
     2    28    27    1
     3    27    26    1
     4    26    25    1
     5    25    22    1
     6    22    21    1
     7    22    23    1
     8    20    19    2
     9    21    19   am
    10    19    18    1
    11    24    23    2
    12    16    14   am
    13   130   129    1
    14   130   131    1
    15   129   128    1
    16   136   137    1
    17   136   133    1
    18    18    17    1
    19   127   128    1
    20   127   124    1
    21     4     3    2
    22   132   133    1
    23   122   121    1
    24    14    15    2
    25    14    13    1
    26   116   114   ar
    27    10    11    1
    28    10    13    1
    29    10     9    1
    30   133   134    1
    31    11    12    2
    32   120   119    2
    33   124   125    1
    34   124   123    1
    35     3     9   am
    36     3     2    1
    37   125   126    2
    38   119   118    1
    39   114   113    1
    40   114   115   ar
    41   121   118    1
    42   134   135    2
    43   134   138   am
    44     2     1    1
    45     2     5    1
    46   113   110    1
    47   118   117    1
    48   117   111   am
    49   138   139    1
    50     5     6    1
    51   111   110    1
    52   111   112    2
    53   110   109    1
    54     8     6    1
    55    30    31    1
    56   145   143   am
    57    36    35    2
    58   144   143    2
    59   143   142    1
    60   139   142    1
    61   139   140    1
    62     6     7    1
    63    41    40    2
    64    32    31    1
    65    32    33    2
    66    35    37   am
    67    35    34    1
    68    38    39    1
    69    31    34    1
    70   167   165   ar
    71   100    99    1
    72    45    43    1
    73   140   141    2
    74   153   151    1
    75    42    39    1
    76    42    43    1
    77    42    44    1
    78    40    39    1
    79   165   164    1
    80   165   166   ar
    81    99    97   ar
    82    99    98   ar
    83   146   147    1
    84   147   148    1
    85   147   150    1
    86    97    95   ar
    87   164   161    1
    88   104   103    2
    89   151   150    1
    90   151   152    1
    91   148   149    2
    92    58    59    1
    93    58    57    1
    94    98    96   ar
    95   159   158    1
    96   163   162    2
    97   157   156    2
    98   103   102    1
    99    95    94   ar
   100   161   162    1
   101   161   160    1
   102    56    57    1
   103    56    55    1
   104   156   160   am
   105   156   155    1
   106    96    94   ar
   107   105   102    1
   108   105   106    1
   109   158   155    1
   110    94    93    1
   111   102   101    1
   112   154   155    1
   113    50    47    1
   114    52    55    1
   115    52    53    1
   116    52    51    1
   117   101    91   am
   118    53    54    2
   119   106   107    1
   120    47    48    1
   121    47    46    1
   122    93    90    1
   123    91    90    1
   124    91    92    2
   125   108   107    1
   126    48    49    2
   127    90    89    1
   128    67    65    1
   129    76    74   ar
   130    76    78   ar
   131    83    82    2
   132    74    73   ar
   133    66    65    1
   134    89    82   am
   135    65    64    1
   136    64    61    1
   137    82    81    1
   138    79    78    1
   139    78    77   ar
   140    73    72    1
   141    73    75   ar
   142    72    69    1
   143    60    61    1
   144    61    62    1
   145    71    70    2
   146    77    75   ar
   147    85    86    1
   148    85    84    1
   149    70    69    1
   150    70    80   am
   151    81    80    1
   152    81    84    1
   153    69    68    1
   154    63    62    2
   155    86    88   ar
   156    86    87   ar
