@<TRIPOS>MOLECULE
tmp/2pmnA00.pdb
 165 156 0 0 0
SMALL
GASTEIGER

@<TRIPOS>ATOM
      1  N         -8.6030  -40.6330  -22.7010 N.3    39  LEU39      -0.1231
      2  CA        -9.6520  -39.8570  -23.3690 C.3    39  LEU39       0.1693
      3  C         -9.1180  -38.9740  -24.4820 C.2    39  LEU39       0.2592
      4  O         -9.7550  -38.8300  -25.5290 O.2    39  LEU39      -0.2718
      5  CB       -10.4690  -39.0320  -22.3640 C.3    39  LEU39       0.0284
      6  CG       -11.4620  -39.8230  -21.4930 C.3    39  LEU39       0.0019
      7  CD1      -12.1590  -38.9350  -20.4730 C.3    39  LEU39       0.0001
      8  CD2      -12.4860  -40.5950  -22.3350 C.3    39  LEU39       0.0001
      9  N         -7.9600  -38.3710  -24.2490 N.am   40  ASN40      -0.1974
     10  CA        -7.2150  -37.7100  -25.3120 C.3    40  ASN40       0.1688
     11  C         -5.7200  -37.8330  -25.0820 C.2    40  ASN40       0.2292
     12  O         -5.2580  -37.8000  -23.9300 O.2    40  ASN40      -0.2864
     13  CB        -7.5910  -36.2320  -25.4070 C.3    40  ASN40       0.1181
     14  CG        -6.9710  -35.3900  -24.3000 C.2    40  ASN40       0.2629
     15  OD1       -6.6930  -35.8720  -23.1930 O.2    40  ASN40      -0.2716
     16  ND2       -6.7510  -34.1180  -24.5980 N.am   40  ASN40      -0.0877
     17  N         -5.3630  -37.5380  -20.3480 N.3    47  ILE47      -0.1245
     18  CA        -6.4190  -37.7900  -19.3700 C.3    47  ILE47       0.1561
     19  C         -6.9150  -39.2260  -19.4880 C.2    47  ILE47       0.2260
     20  O         -7.3740  -39.6420  -20.5430 O.2    47  ILE47      -0.2867
     21  CB        -7.6130  -36.8320  -19.5360 C.3    47  ILE47       0.0252
     22  CG1       -7.1440  -35.3750  -19.6600 C.3    47  ILE47       0.0019
     23  CG2       -8.5790  -36.9840  -18.3630 C.3    47  ILE47       0.0019
     24  CD1       -8.0810  -34.4870  -20.4720 C.3    47  ILE47       0.0001
     25  N        -11.7360  -39.2130  -13.9410 N.3    58  ALA58      -0.1245
     26  CA       -10.7940  -38.7410  -14.9430 C.3    58  ALA58       0.1562
     27  C         -9.4990  -38.3440  -14.2520 C.2    58  ALA58       0.2260
     28  O         -9.4680  -37.4140  -13.4450 O.2    58  ALA58      -0.2867
     29  CB       -11.3820  -37.5810  -15.7340 C.3    58  ALA58       0.0290
     30  N         -5.6130  -37.1900  -14.6790 N.3    60  LYS60      -0.1245
     31  CA        -4.6760  -36.5830  -15.6120 C.3    60  LYS60       0.1561
     32  C         -3.2760  -37.0550  -15.2770 C.2    60  LYS60       0.2260
     33  O         -2.8190  -36.9110  -14.1480 O.2    60  LYS60      -0.2867
     34  CB        -4.7550  -35.0650  -15.5360 C.3    60  LYS60       0.0271
     35  CG        -4.8520  -34.4080  -16.8850 C.3    60  LYS60       0.0035
     36  CD        -4.6450  -32.9100  -16.7900 C.3    60  LYS60       0.0206
     37  CE        -4.5990  -32.2650  -18.1790 C.3    60  LYS60       0.1093
     38  NZ        -3.5550  -31.1880  -18.2600 N.3    60  LYS60      -0.1314
     39  N          0.9580  -25.0540  -12.1010 N.3    93  GLU93      -0.1245
     40  CA        -0.3560  -25.6410  -12.2160 C.3    93  GLU93       0.1567
     41  C         -0.6630  -26.4400  -10.9590 C.2    93  GLU93       0.2260
     42  O         -1.7660  -26.3470  -10.4150 O.2    93  GLU93      -0.2867
     43  CB        -0.4480  -26.5230  -13.4550 C.3    93  GLU93       0.0388
     44  CG        -1.8710  -26.8580  -13.8530 C.3    93  GLU93       0.1160
     45  CD        -1.9540  -27.9790  -14.8690 C.2    93  GLU93       0.3649
     46  OE1       -0.9100  -28.3690  -15.4330 O.co2  93  GLU93      -0.2457
     47  OE2       -3.0770  -28.4680  -15.1170 O.co2  93  GLU93      -0.2457
     48  N         -4.0050  -26.1200   -8.8330 N.3    97  ILE97      -0.1245
     49  CA        -4.8140  -27.3290   -8.7050 C.3    97  ILE97       0.1561
     50  C         -4.9430  -27.6860   -7.2330 C.2    97  ILE97       0.2260
     51  O         -5.9770  -28.1540   -6.7700 O.2    97  ILE97      -0.2867
     52  CB        -4.1560  -28.4940   -9.4430 C.3    97  ILE97       0.0252
     53  CG1       -4.3170  -28.3080  -10.9480 C.3    97  ILE97       0.0019
     54  CG2       -4.7320  -29.8430   -8.9720 C.3    97  ILE97       0.0019
     55  CD1       -3.3090  -29.1150  -11.7550 C.3    97  ILE97       0.0001
     56  N        -13.9320  -27.6390  -11.8640 N.3   106  LEU106     -0.1245
     57  CA       -13.5010  -29.0310  -11.7170 C.3   106  LEU106      0.1561
     58  C        -12.3840  -29.0870  -10.6840 C.2   106  LEU106      0.2260
     59  O        -11.3210  -28.5060  -10.8730 O.2   106  LEU106     -0.2867
     60  CB       -13.0670  -29.6330  -13.0470 C.3   106  LEU106      0.0270
     61  CG       -13.1580  -31.1550  -13.0960 C.3   106  LEU106      0.0019
     62  CD1      -14.5900  -31.6080  -13.1960 C.3   106  LEU106      0.0001
     63  CD2      -12.3850  -31.6960  -14.2690 C.3   106  LEU106      0.0001
     64  N         -9.9690  -36.5920  -10.7970 N.3   122  TYR122     -0.1227
     65  CA       -11.1650  -35.7560  -10.8930 C.3   122  TYR122      0.1736
     66  C        -12.3800  -36.6200  -11.1820 C.2   122  TYR122      0.2595
     67  O        -12.2490  -37.7260  -11.6880 O.2   122  TYR122     -0.2718
     68  CB       -11.0550  -34.7590  -12.0390 C.3   122  TYR122      0.0548
     69  CG        -9.8520  -33.8370  -12.0270 C.ar  122  TYR122     -0.0200
     70  CD1       -8.6750  -34.1970  -12.6790 C.ar  122  TYR122     -0.0009
     71  CD2       -9.9100  -32.5800  -11.4090 C.ar  122  TYR122     -0.0009
     72  CE1       -7.5720  -33.3390  -12.6870 C.ar  122  TYR122      0.0417
     73  CE2       -8.8110  -31.7210  -11.4060 C.ar  122  TYR122      0.0417
     74  CZ        -7.6520  -32.1070  -12.0480 C.ar  122  TYR122      0.1957
     75  OH        -6.5630  -31.2730  -12.0690 O.3   122  TYR122     -0.2866
     76  N        -13.5670  -36.1030  -10.8810 N.am  123  GLU123     -0.1965
     77  CA       -14.8090  -36.7000  -11.3480 C.3   123  GLU123      0.1733
     78  C        -14.8280  -36.6460  -12.8600 C.2   123  GLU123      0.2616
     79  O        -14.2180  -35.7610  -13.4650 O.2   123  GLU123     -0.2715
     80  CB       -16.0160  -35.9410  -10.7980 C.3   123  GLU123      0.0429
     81  CG       -16.0640  -34.4430  -11.1310 C.3   123  GLU123      0.1163
     82  CD       -17.3680  -33.7690  -10.6810 C.2   123  GLU123      0.3649
     83  OE1      -17.3120  -32.6090  -10.2040 O.co2 123  GLU123     -0.2457
     84  OE2      -18.4460  -34.3930  -10.8040 O.co2 123  GLU123     -0.2457
     85  N        -15.5150  -37.6020  -13.4740 N.am  124  TYR124     -0.1960
     86  CA       -15.6530  -37.6270  -14.9210 C.3   124  TYR124      0.1771
     87  C        -16.9810  -37.0040  -15.2970 C.2   124  TYR124      0.2619
     88  O        -18.0450  -37.5230  -14.9420 O.2   124  TYR124     -0.2715
     89  CB       -15.5480  -39.0500  -15.4480 C.3   124  TYR124      0.0574
     90  CG       -15.9530  -39.2040  -16.8980 C.ar  124  TYR124     -0.0198
     91  CD1      -15.2160  -38.6040  -17.9200 C.ar  124  TYR124     -0.0009
     92  CD2      -17.0660  -39.9640  -17.2510 C.ar  124  TYR124     -0.0009
     93  CE1      -15.5840  -38.7540  -19.2550 C.ar  124  TYR124      0.0417
     94  CE2      -17.4360  -40.1160  -18.5740 C.ar  124  TYR124      0.0417
     95  CZ       -16.6950  -39.5100  -19.5670 C.ar  124  TYR124      0.1957
     96  OH       -17.0610  -39.6680  -20.8790 O.3   124  TYR124     -0.2866
     97  N        -16.9030  -35.8760  -15.9960 N.am  125  MET125     -0.1977
     98  CA       -18.0750  -35.0980  -16.3770 C.3   125  MET125      0.1605
     99  C        -18.7350  -35.7280  -17.5910 C.2   125  MET125      0.2287
    100  O        -18.3770  -35.4110  -18.7310 O.2   125  MET125     -0.2864
    101  CB       -17.6560  -33.6650  -16.6910 C.3   125  MET125      0.0413
    102  CG       -16.9630  -32.9610  -15.5430 C.3   125  MET125      0.0598
    103  SD       -18.0700  -32.6540  -14.1590 S.3   125  MET125     -0.1393
    104  CE       -19.1470  -31.3690  -14.8040 C.3   125  MET125      0.0692
    105  N        -19.4220  -34.5980  -21.1510 N.3   128  ASP128     -0.1225
    106  CA       -18.2470  -34.1540  -21.8850 C.3   128  ASP128      0.1805
    107  C        -18.2230  -32.6400  -21.9270 C.2   128  ASP128      0.2598
    108  O        -18.8500  -31.9880  -21.1000 O.2   128  ASP128     -0.2718
    109  CB       -18.2260  -34.7670  -23.2970 C.3   128  ASP128      0.1424
    110  CG       -16.8080  -34.8930  -23.8810 C.2   128  ASP128      0.3668
    111  OD1      -16.7000  -35.2050  -25.0880 O.co2 128  ASP128     -0.2456
    112  OD2      -15.8060  -34.6840  -23.1620 O.co2 128  ASP128     -0.2456
    113  N        -17.4920  -32.0790  -22.8790 N.am  129  SER129     -0.1952
    114  CA       -17.4220  -30.6390  -22.9960 C.3   129  SER129      0.1924
    115  C        -18.6500  -30.1060  -23.7040 C.2   129  SER129      0.2314
    116  O        -19.2430  -30.7680  -24.5510 O.2   129  SER129     -0.2863
    117  CB       -16.1290  -30.1880  -23.6980 C.3   129  SER129      0.2116
    118  OG       -16.0070  -30.7270  -25.0060 O.3   129  SER129     -0.2180
    119  N        -13.8240  -26.4030  -24.8520 N.3   181  SER181     -0.1202
    120  CA       -13.1810  -27.6460  -24.4030 C.3   181  SER181      0.2020
    121  C        -13.1040  -27.6500  -22.8870 C.2   181  SER181      0.2618
    122  O        -13.1200  -28.7170  -22.2570 O.2   181  SER181     -0.2717
    123  CB       -11.7420  -27.7970  -24.9500 C.3   181  SER181      0.2103
    124  OG       -11.4870  -27.0250  -26.1260 O.3   181  SER181     -0.2182
    125  N        -13.0140  -26.4560  -22.3040 N.am  182  ASN182     -0.1974
    126  CA       -12.7800  -26.3250  -20.8750 C.3   182  ASN182      0.1688
    127  C        -14.0280  -26.1720  -20.0550 C.2   182  ASN182      0.2292
    128  O        -13.9590  -26.1430  -18.8280 O.2   182  ASN182     -0.2864
    129  CB       -11.8090  -25.1870  -20.5910 C.3   182  ASN182      0.1181
    130  CG       -10.3820  -25.5630  -20.9330 C.2   182  ASN182      0.2629
    131  OD1      -10.0750  -26.7450  -21.0970 O.2   182  ASN182     -0.2716
    132  ND2       -9.5080  -24.5670  -21.0550 N.am  182  ASN182     -0.0877
    133  N        -17.2510  -27.9910  -18.9130 N.3   184  LEU184     -0.1245
    134  CA       -17.6700  -29.3850  -18.8370 C.3   184  LEU184      0.1561
    135  C        -19.0440  -29.5660  -18.2010 C.2   184  LEU184      0.2260
    136  O        -19.4570  -28.7950  -17.3350 O.2   184  LEU184     -0.2867
    137  CB       -16.6330  -30.1990  -18.0650 C.3   184  LEU184      0.0270
    138  CG       -15.2360  -30.3060  -18.6720 C.3   184  LEU184      0.0019
    139  CD1      -14.3140  -31.0860  -17.7650 C.3   184  LEU184      0.0001
    140  CD2      -15.3070  -30.9630  -20.0340 C.3   184  LEU184      0.0001
    141  N        -12.7850  -26.0820  -16.1310 N.3   194  SER194     -0.1202
    142  CA       -11.7390  -27.0770  -15.9590 C.3   194  SER194      0.2020
    143  C        -10.4510  -26.7000  -16.6990 C.2   194  SER194      0.2619
    144  O        -10.4460  -25.7780  -17.5320 O.2   194  SER194     -0.2717
    145  CB       -12.2360  -28.4410  -16.4230 C.3   194  SER194      0.2103
    146  OG       -12.1040  -28.5630  -17.8200 O.3   194  SER194     -0.2182
    147  N         -9.3740  -27.4250  -16.3760 N.am  195  ASP195     -0.1959
    148  CA        -8.0340  -27.2210  -16.9430 C.3   195  ASP195      0.1840
    149  C         -7.3930  -25.8580  -16.6030 C.2   195  ASP195      0.2622
    150  O         -7.6410  -24.8400  -17.2640 O.2   195  ASP195     -0.2715
    151  CB        -8.0050  -27.4880  -18.4450 C.3   195  ASP195      0.1450
    152  CG        -6.6040  -27.5650  -18.9800 C.2   195  ASP195      0.3671
    153  OD1       -5.6670  -27.1900  -18.2460 O.co2 195  ASP195     -0.2456
    154  OD2       -6.4230  -27.9860  -20.1400 O.co2 195  ASP195     -0.2456
    155  N         -6.5460  -25.8750  -15.5740 N.am  196  PHE196     -0.1974
    156  CA        -5.8520  -24.6830  -15.1120 C.3   196  PHE196      0.1639
    157  C         -4.3750  -24.6620  -15.5310 C.2   196  PHE196      0.2290
    158  O         -3.5270  -24.0680  -14.8550 O.2   196  PHE196     -0.2864
    159  CB        -6.0210  -24.5480  -13.6000 C.3   196  PHE196      0.0560
    160  CG        -7.4460  -24.3310  -13.1710 C.ar  196  PHE196     -0.0200
    161  CD1       -8.2600  -25.4120  -12.8320 C.ar  196  PHE196     -0.0042
    162  CD2       -7.9830  -23.0380  -13.1060 C.ar  196  PHE196     -0.0042
    163  CE1       -9.6080  -25.2190  -12.4320 C.ar  196  PHE196     -0.0003
    164  CE2       -9.3220  -22.8240  -12.7090 C.ar  196  PHE196     -0.0003
    165  CZ       -10.1400  -23.9260  -12.3740 C.ar  196  PHE196     -0.0000
@<TRIPOS>BOND
     1   124   123    1
     2     4     3    2
     3    13    10    1
     4    13    14    1
     5    10    11    1
     6    10     9    1
     7   111   110   ar
     8    11    12    2
     9   118   117    1
    10   123   120    1
    11   119   120    1
    12    16    14   am
    13   116   115    2
    14     3     9   am
    15     3     2    1
    16   120   121    1
    17    14    15    2
    18   110   109    1
    19   110   112   ar
    20   115   114    1
    21   117   114    1
    22     2     1    1
    23     2     5    1
    24   109   106    1
    25   114   113    1
    26   121   125   am
    27   121   122    2
    28   113   107   am
    29     5     6    1
    30     8     6    1
    31   125   126    1
    32   107   106    1
    33   107   108    2
    34   106   105    1
    35     6     7    1
    36   131   130    2
    37   132   130   am
    38   130   129    1
    39    96    95    1
    40   126   129    1
    41   126   127    1
    42    20    19    2
    43    24    22    1
    44    17    18    1
    45   154   152   ar
    46   127   128    2
    47   140   138    1
    48    22    21    1
    49    95    93   ar
    50    95    94   ar
    51    21    18    1
    52    21    23    1
    53    19    18    1
    54    93    91   ar
    55   152   151    1
    56   152   153   ar
    57   133   134    1
    58   134   135    1
    59   134   137    1
    60   100    99    2
    61   138   137    1
    62   138   139    1
    63    94    92   ar
    64   151   148    1
    65    38    37    1
    66   135   136    2
    67    37    36    1
    68    91    90   ar
    69   146   145    1
    70    99    98    1
    71   144   143    2
    72   150   149    2
    73    92    90   ar
    74   148   149    1
    75   148   147    1
    76    90    89    1
    77    35    36    1
    78    35    34    1
    79   143   147   am
    80   143   142    1
    81   101    98    1
    82   101   102    1
    83   149   155   am
    84   145   142    1
    85    98    97    1
    86   141   142    1
    87    97    87   am
    88    29    26    1
    89    31    34    1
    90    31    32    1
    91    31    30    1
    92   155   156    1
    93   102   103    1
    94   157   156    1
    95   157   158    2
    96    89    86    1
    97    46    45   ar
    98    87    88    2
    99    87    86    1
   100    32    33    2
   101    47    45   ar
   102   156   159    1
   103    26    27    1
   104    26    25    1
   105    86    85    1
   106    45    44    1
   107   104   103    1
   108    63    61    1
   109    27    28    2
   110    44    43    1
   111   159   160    1
   112    85    78   am
   113    79    78    2
   114    43    40    1
   115    62    61    1
   116   160   162   ar
   117   160   161   ar
   118   162   164   ar
   119    61    60    1
   120    60    57    1
   121    78    77    1
   122   161   163   ar
   123   164   165   ar
   124    72    70   ar
   125    72    74   ar
   126    70    69   ar
   127   163   165   ar
   128    40    39    1
   129    40    41    1
   130    75    74    1
   131    74    73   ar
   132    68    69    1
   133    68    65    1
   134    69    71   ar
   135    56    57    1
   136    55    53    1
   137    57    58    1
   138    67    66    2
   139    71    73   ar
   140    77    76    1
   141    77    80    1
   142    66    65    1
   143    66    76   am
   144    81    80    1
   145    81    82    1
   146    41    42    2
   147    53    52    1
   148    65    64    1
   149    59    58    2
   150    84    82   ar
   151    82    83   ar
   152    52    54    1
   153    52    49    1
   154    48    49    1
   155    49    50    1
   156    50    51    2
