@<TRIPOS>MOLECULE
tmp/2pmoA00.pdb
 145 136 0 0 0
SMALL
GASTEIGER

@<TRIPOS>ATOM
      1  N        -10.0980  -40.7000  -22.1040 N.3    39  LEU39      -0.1231
      2  CA       -11.1660  -39.8100  -22.5780 C.3    39  LEU39       0.1693
      3  C        -10.6460  -38.7690  -23.5600 C.2    39  LEU39       0.2592
      4  O        -11.2820  -38.5150  -24.5840 O.2    39  LEU39      -0.2718
      5  CB       -11.8620  -39.1110  -21.4120 C.3    39  LEU39       0.0284
      6  CG       -12.7900  -39.9240  -20.5150 C.3    39  LEU39       0.0019
      7  CD1      -12.9340  -39.2410  -19.1640 C.3    39  LEU39       0.0001
      8  CD2      -14.1460  -40.0940  -21.1670 C.3    39  LEU39       0.0001
      9  N         -9.4920  -38.1810  -23.2400 N.am   40  ASN40      -0.1974
     10  CA        -8.8440  -37.1630  -24.0720 C.3    40  ASN40       0.1688
     11  C         -7.3360  -37.0870  -23.8100 C.2    40  ASN40       0.2292
     12  O         -6.9050  -37.0300  -22.6550 O.2    40  ASN40      -0.2864
     13  CB        -9.5280  -35.8000  -23.8620 C.3    40  ASN40       0.1181
     14  CG        -8.5850  -34.6120  -24.0400 C.2    40  ASN40       0.2629
     15  OD1       -8.4080  -33.8220  -23.1210 O.2    40  ASN40      -0.2716
     16  ND2       -7.9980  -34.4720  -25.2210 N.am   40  ASN40      -0.0877
     17  N         -0.7430  -33.8170  -21.1240 N.3    45  ASN45      -0.1240
     18  CA        -1.3820  -34.6710  -20.1370 C.3    45  ASN45       0.1653
     19  C         -2.4340  -35.4960  -20.8330 C.2    45  ASN45       0.2266
     20  O         -2.9440  -35.0910  -21.8810 O.2    45  ASN45      -0.2867
     21  CB        -2.0410  -33.8520  -19.0210 C.3    45  ASN45       0.1155
     22  CG        -2.9950  -32.7720  -19.5400 C.2    45  ASN45       0.2627
     23  OD1       -2.7630  -31.5880  -19.3260 O.2    45  ASN45      -0.2716
     24  ND2       -4.0770  -33.1770  -20.1950 N.am   45  ASN45      -0.0877
     25  N         -6.2100  -37.6830  -20.0060 N.3    47  ILE47      -0.1245
     26  CA        -7.2880  -37.8240  -19.0420 C.3    47  ILE47       0.1561
     27  C         -7.8190  -39.2410  -19.2100 C.2    47  ILE47       0.2260
     28  O         -8.1390  -39.6640  -20.3280 O.2    47  ILE47      -0.2867
     29  CB        -8.3880  -36.7650  -19.2830 C.3    47  ILE47       0.0252
     30  CG1       -7.7830  -35.3630  -19.2160 C.3    47  ILE47       0.0019
     31  CG2       -9.5020  -36.8870  -18.2610 C.3    47  ILE47       0.0019
     32  CD1       -8.2100  -34.4640  -20.3470 C.3    47  ILE47       0.0001
     33  N        -12.4040  -39.7440  -13.4240 N.3    58  ALA58      -0.1245
     34  CA       -11.5030  -39.2930  -14.4790 C.3    58  ALA58       0.1562
     35  C        -10.1650  -38.8400  -13.8800 C.2    58  ALA58       0.2260
     36  O        -10.1120  -37.9140  -13.0560 O.2    58  ALA58      -0.2867
     37  CB       -12.1430  -38.1820  -15.2820 C.3    58  ALA58       0.0290
     38  N         -6.4640  -37.3800  -14.4690 N.3    60  LYS60      -0.1245
     39  CA        -5.5390  -36.6480  -15.3270 C.3    60  LYS60       0.1561
     40  C         -4.1090  -37.1200  -15.0710 C.2    60  LYS60       0.2260
     41  O         -3.5720  -36.9470  -13.9730 O.2    60  LYS60      -0.2867
     42  CB        -5.6650  -35.1500  -15.0520 C.3    60  LYS60       0.0271
     43  CG        -5.2690  -34.2400  -16.1950 C.3    60  LYS60       0.0035
     44  CD        -6.0280  -32.9220  -16.0900 C.3    60  LYS60       0.0206
     45  CE        -5.8800  -32.0620  -17.3360 C.3    60  LYS60       0.1093
     46  NZ        -4.7120  -31.1400  -17.2930 N.3    60  LYS60      -0.1314
     47  N        -13.9020  -27.5760  -11.3870 N.3   106  LEU106     -0.1245
     48  CA       -13.4870  -28.9600  -11.2270 C.3   106  LEU106      0.1561
     49  C        -12.4330  -29.0610  -10.1310 C.2   106  LEU106      0.2260
     50  O        -11.2880  -28.6230  -10.2980 O.2   106  LEU106     -0.2867
     51  CB       -12.9590  -29.5100  -12.5390 C.3   106  LEU106      0.0270
     52  CG       -13.0960  -31.0100  -12.7170 C.3   106  LEU106      0.0019
     53  CD1      -14.5390  -31.4440  -12.9450 C.3   106  LEU106      0.0001
     54  CD2      -12.2570  -31.3820  -13.8910 C.3   106  LEU106      0.0001
     55  N        -10.4320  -36.7050  -10.5520 N.3   122  TYR122     -0.1227
     56  CA       -11.6290  -35.8660  -10.6880 C.3   122  TYR122      0.1736
     57  C        -12.8970  -36.6990  -10.8480 C.2   122  TYR122      0.2595
     58  O        -12.8420  -37.8620  -11.2270 O.2   122  TYR122     -0.2718
     59  CB       -11.5260  -34.9390  -11.8950 C.3   122  TYR122      0.0548
     60  CG       -10.4480  -33.8640  -11.8580 C.ar  122  TYR122     -0.0200
     61  CD1       -9.4140  -33.8580  -12.7950 C.ar  122  TYR122     -0.0009
     62  CD2      -10.4930  -32.8250  -10.9290 C.ar  122  TYR122     -0.0009
     63  CE1       -8.4410  -32.8550  -12.7880 C.ar  122  TYR122      0.0417
     64  CE2       -9.5280  -31.8240  -10.9230 C.ar  122  TYR122      0.0417
     65  CZ        -8.5090  -31.8480  -11.8510 C.ar  122  TYR122      0.1957
     66  OH        -7.5500  -30.8620  -11.8350 O.3   122  TYR122     -0.2866
     67  N        -14.0410  -36.0850  -10.5600 N.am  123  GLU123     -0.1965
     68  CA       -15.3400  -36.6480  -10.8860 C.3   123  GLU123      0.1733
     69  C        -15.4610  -36.8050  -12.4050 C.2   123  GLU123      0.2616
     70  O        -14.8560  -36.0530  -13.1630 O.2   123  GLU123     -0.2715
     71  CB       -16.4500  -35.7340  -10.3560 C.3   123  GLU123      0.0429
     72  CG       -16.5350  -34.3810  -11.0620 C.3   123  GLU123      0.1163
     73  CD       -17.5970  -33.4570  -10.4980 C.2   123  GLU123      0.3649
     74  OE1      -17.2250  -32.3370  -10.0780 O.co2 123  GLU123     -0.2457
     75  OE2      -18.7900  -33.8430  -10.4770 O.co2 123  GLU123     -0.2457
     76  N        -16.2330  -37.7870  -12.8500 N.am  124  TYR124     -0.1960
     77  CA       -16.4420  -37.9840  -14.2800 C.3   124  TYR124      0.1771
     78  C        -17.6590  -37.1900  -14.7500 C.2   124  TYR124      0.2619
     79  O        -18.7770  -37.3860  -14.2710 O.2   124  TYR124     -0.2715
     80  CB       -16.5740  -39.4710  -14.5970 C.3   124  TYR124      0.0574
     81  CG       -16.9800  -39.7910  -16.0130 C.ar  124  TYR124     -0.0198
     82  CD1      -16.2930  -39.2590  -17.1030 C.ar  124  TYR124     -0.0009
     83  CD2      -18.0400  -40.6540  -16.2630 C.ar  124  TYR124     -0.0009
     84  CE1      -16.6700  -39.5710  -18.4120 C.ar  124  TYR124      0.0417
     85  CE2      -18.4230  -40.9720  -17.5580 C.ar  124  TYR124      0.0417
     86  CZ       -17.7390  -40.4290  -18.6280 C.ar  124  TYR124      0.1957
     87  OH       -18.1320  -40.7570  -19.9060 O.3   124  TYR124     -0.2866
     88  N        -17.4220  -36.2730  -15.6780 N.am  125  MET125     -0.1977
     89  CA       -18.4640  -35.4130  -16.2020 C.3   125  MET125      0.1605
     90  C        -18.9900  -36.0700  -17.4640 C.2   125  MET125      0.2287
     91  O        -18.4790  -35.8360  -18.5700 O.2   125  MET125     -0.2864
     92  CB       -17.8950  -34.0290  -16.4940 C.3   125  MET125      0.0413
     93  CG       -17.1420  -33.3870  -15.3250 C.3   125  MET125      0.0598
     94  SD       -18.2580  -32.8080  -14.0250 S.3   125  MET125     -0.1393
     95  CE       -18.8160  -31.2640  -14.7310 C.3   125  MET125      0.0692
     96  N        -18.9090  -35.0030  -21.3210 N.3   128  ASP128     -0.1225
     97  CA       -17.6570  -34.3910  -21.7710 C.3   128  ASP128      0.1805
     98  C        -17.7650  -32.8820  -21.7030 C.2   128  ASP128      0.2598
     99  O        -18.3280  -32.3400  -20.7520 O.2   128  ASP128     -0.2718
    100  CB       -17.2970  -34.8220  -23.1960 C.3   128  ASP128      0.1424
    101  CG       -17.3640  -36.3140  -23.3880 C.2   128  ASP128      0.3668
    102  OD1      -17.7890  -36.7490  -24.4850 O.co2 128  ASP128     -0.2456
    103  OD2      -16.9990  -37.0490  -22.4440 O.co2 128  ASP128     -0.2456
    104  N        -17.2480  -32.2190  -22.7320 N.am  129  SER129     -0.1952
    105  CA       -17.2010  -30.7700  -22.7870 C.3   129  SER129      0.1924
    106  C        -18.5070  -30.1640  -23.3020 C.2   129  SER129      0.2314
    107  O        -19.3860  -30.8610  -23.8110 O.2   129  SER129     -0.2863
    108  CB       -16.0220  -30.3150  -23.6570 C.3   129  SER129      0.2116
    109  OG       -16.2480  -30.6300  -25.0220 O.3   129  SER129     -0.2180
    110  N        -13.7610  -26.4690  -24.6470 N.3   181  SER181     -0.1202
    111  CA       -13.0470  -27.6660  -24.2020 C.3   181  SER181      0.2020
    112  C        -12.9940  -27.7670  -22.6800 C.2   181  SER181      0.2618
    113  O        -13.0870  -28.8610  -22.1230 O.2   181  SER181     -0.2717
    114  CB       -11.6130  -27.6730  -24.7490 C.3   181  SER181      0.2103
    115  OG       -11.5630  -27.2430  -26.0990 O.3   181  SER181     -0.2182
    116  N        -12.8490  -26.6250  -22.0150 N.am  182  ASN182     -0.1974
    117  CA       -12.6250  -26.5850  -20.5770 C.3   182  ASN182      0.1688
    118  C        -13.9010  -26.4110  -19.7620 C.2   182  ASN182      0.2292
    119  O        -13.8690  -26.4110  -18.5210 O.2   182  ASN182     -0.2864
    120  CB       -11.6050  -25.4930  -20.2440 C.3   182  ASN182      0.1181
    121  CG       -10.2350  -25.7700  -20.8590 C.2   182  ASN182      0.2629
    122  OD1       -9.8320  -26.9220  -20.9980 O.2   182  ASN182     -0.2716
    123  ND2       -9.5250  -24.7130  -21.2490 N.am  182  ASN182     -0.0877
    124  N        -17.0500  -28.1290  -18.6960 N.3   184  LEU184     -0.1245
    125  CA       -17.4770  -29.5220  -18.6550 C.3   184  LEU184      0.1561
    126  C        -18.8400  -29.6820  -18.0340 C.2   184  LEU184      0.2260
    127  O        -19.2470  -28.8830  -17.1980 O.2   184  LEU184     -0.2867
    128  CB       -16.4560  -30.3740  -17.9040 C.3   184  LEU184      0.0270
    129  CG       -15.0460  -30.4120  -18.4870 C.3   184  LEU184      0.0019
    130  CD1      -14.1100  -31.2010  -17.5890 C.3   184  LEU184      0.0001
    131  CD2      -15.0900  -31.0060  -19.8780 C.3   184  LEU184      0.0001
    132  N        -12.8240  -26.1120  -15.8310 N.3   194  SER194     -0.1202
    133  CA       -11.7310  -27.0540  -15.6160 C.3   194  SER194      0.2020
    134  C        -10.4510  -26.6580  -16.3560 C.2   194  SER194      0.2618
    135  O        -10.4300  -25.6660  -17.0850 O.2   194  SER194     -0.2717
    136  CB       -12.1640  -28.4320  -16.0870 C.3   194  SER194      0.2103
    137  OG       -12.1650  -28.4710  -17.5010 O.3   194  SER194     -0.2182
    138  N         -9.4010  -27.4610  -16.1730 N.am  195  ASP195     -0.1973
    139  CA        -8.0800  -27.2770  -16.8210 C.3   195  ASP195      0.1709
    140  C         -7.3410  -25.9760  -16.4500 C.2   195  ASP195      0.2293
    141  O         -7.5830  -24.9110  -17.0350 O.2   195  ASP195     -0.2864
    142  CB        -8.1760  -27.4290  -18.3410 C.3   195  ASP195      0.1436
    143  CG        -6.8380  -27.7230  -18.9740 C.2   195  ASP195      0.3671
    144  OD1       -5.8060  -27.3170  -18.3900 O.co2 195  ASP195     -0.2456
    145  OD2       -6.8060  -28.3640  -20.0550 O.co2 195  ASP195     -0.2456
@<TRIPOS>BOND
     1   115   114    1
     2    16    14   am
     3   109   108    1
     4   114   111    1
     5   110   111    1
     6     4     3    2
     7   102   101   ar
     8   111   112    1
     9    10    13    1
    10    10    11    1
    11    10     9    1
    12    14    13    1
    13    14    15    2
    14   107   106    2
    15    11    12    2
    16   108   105    1
    17     3     9   am
    18     3     2    1
    19   101   100    1
    20   101   103   ar
    21   106   105    1
    22   100    97    1
    23   105   104    1
    24   104    98   am
    25   112   113    2
    26   112   116   am
    27     2     1    1
    28     2     5    1
    29   116   117    1
    30    20    19    2
    31    97    98    1
    32    97    96    1
    33    98    99    2
    34     5     6    1
    35   123   121   am
    36     8     6    1
    37    17    18    1
    38   122   121    2
    39   121   120    1
    40    19    18    1
    41   117   120    1
    42   117   118    1
    43     6     7    1
    44    32    30    1
    45    28    27    2
    46    24    22   am
    47    18    21    1
    48   145   143   ar
    49    25    26    1
    50    87    86    1
    51   131   129    1
    52   118   119    2
    53    22    23    2
    54    22    21    1
    55    29    30    1
    56    29    26    1
    57    29    31    1
    58    27    26    1
    59   143   144   ar
    60   143   142    1
    61   124   125    1
    62   125   126    1
    63   125   128    1
    64    86    84   ar
    65    86    85   ar
    66    91    90    2
    67   129   128    1
    68   129   130    1
    69    84    82   ar
    70   142   139    1
    71   126   127    2
    72    85    83   ar
    73   137   136    1
    74    90    89    1
    75    45    46    1
    76    45    44    1
    77    82    81   ar
    78   135   134    2
    79   141   140    2
    80   139   140    1
    81   139   138    1
    82    92    89    1
    83    92    93    1
    84   134   138   am
    85   134   133    1
    86    83    81   ar
    87    89    88    1
    88    43    44    1
    89    43    42    1
    90   136   133    1
    91    81    80    1
    92   132   133    1
    93    88    78   am
    94    39    40    1
    95    39    42    1
    96    39    38    1
    97    93    94    1
    98    37    34    1
    99    40    41    2
   100    78    77    1
   101    78    79    2
   102    95    94    1
   103    80    77    1
   104    34    35    1
   105    34    33    1
   106    77    76    1
   107    54    52    1
   108    35    36    2
   109    70    69    2
   110    53    52    1
   111    76    69   am
   112    61    63   ar
   113    61    60   ar
   114    63    65   ar
   115    52    51    1
   116    51    48    1
   117    69    68    1
   118    59    60    1
   119    59    56    1
   120    60    62   ar
   121    65    66    1
   122    65    64   ar
   123    47    48    1
   124    48    49    1
   125    58    57    2
   126    72    73    1
   127    72    71    1
   128    62    64   ar
   129    68    67    1
   130    68    71    1
   131    57    56    1
   132    57    67   am
   133    56    55    1
   134    73    75   ar
   135    73    74   ar
   136    50    49    2
