@<TRIPOS>MOLECULE
tmp/2pmtB00.pdb
 126 122 0 0 0
SMALL
GASTEIGER

@<TRIPOS>ATOM
      1  N         11.4530   59.2180  -14.9840 N.3     9  SER9       -0.1202
      2  CA        11.9370   58.4980  -13.8170 C.3     9  SER9        0.2020
      3  C         13.0460   59.2600  -13.1100 C.2     9  SER9        0.2619
      4  O         13.3410   60.4120  -13.4350 O.2     9  SER9       -0.2717
      5  CB        12.4460   57.1190  -14.2260 C.3     9  SER9        0.2103
      6  OG        12.1670   56.1860  -13.2030 O.3     9  SER9       -0.2182
      7  N         13.6580   58.6160  -12.1270 N.am   10  CYS10      -0.1969
      8  CA        14.7450   59.2340  -11.3850 C.3    10  CYS10       0.1712
      9  C         15.9830   59.3700  -12.2810 C.2    10  CYS10       0.2296
     10  O         16.9770   59.9880  -11.8840 O.2    10  CYS10      -0.2864
     11  CB        15.0660   58.3970  -10.1350 C.3    10  CYS10       0.0983
     12  SG        15.1880   56.5960  -10.3790 S.3    10  CYS10      -0.0798
     13  N         10.8380   49.0760  -17.8700 N.3    32  LEU32      -0.1245
     14  CA        10.8960   48.5340  -16.5150 C.3    32  LEU32       0.1561
     15  C          9.9850   47.3430  -16.2590 C.2    32  LEU32       0.2260
     16  O         10.1760   46.6130  -15.2880 O.2    32  LEU32      -0.2867
     17  CB        10.5810   49.6380  -15.5040 C.3    32  LEU32       0.0270
     18  CG        11.6990   50.4690  -14.8610 C.3    32  LEU32       0.0019
     19  CD1       13.0050   50.3780  -15.6520 C.3    32  LEU32       0.0001
     20  CD2       11.2150   51.9080  -14.7660 C.3    32  LEU32       0.0001
     21  N         11.9180   44.6180  -18.4600 N.3    35  LYS35      -0.1245
     22  CA        13.3480   44.6980  -18.1960 C.3    35  LYS35       0.1561
     23  C         14.1450   44.4770  -19.4720 C.2    35  LYS35       0.2260
     24  O         15.1220   43.7260  -19.4830 O.2    35  LYS35      -0.2867
     25  CB        13.7660   43.6570  -17.1550 C.3    35  LYS35       0.0271
     26  CG        12.9970   43.7250  -15.8470 C.3    35  LYS35       0.0035
     27  CD        13.2040   45.0510  -15.1280 C.3    35  LYS35       0.0206
     28  CE        12.6030   45.0020  -13.7330 C.3    35  LYS35       0.1093
     29  NZ        12.5960   46.3360  -13.0830 N.3    35  LYS35      -0.1314
     30  N         18.2640   45.6120  -11.7470 N.3    50  GLY50      -0.1210
     31  CA        17.0920   45.9430  -12.5480 C.3    50  GLY50       0.1956
     32  C         16.4670   47.3280  -12.4470 C.2    50  GLY50       0.2612
     33  O         15.2570   47.4590  -12.5990 O.2    50  GLY50      -0.2717
     34  N         17.2650   48.3660  -12.2130 N.am   51  GLN51      -0.1965
     35  CA        16.7210   49.7230  -12.1220 C.3    51  GLN51       0.1733
     36  C         17.5030   50.7360  -12.9470 C.2    51  GLN51       0.2616
     37  O         18.6020   50.4530  -13.4240 O.2    51  GLN51      -0.2715
     38  CB        16.7040   50.2290  -10.6730 C.3    51  GLN51       0.0408
     39  CG        16.5110   49.1840   -9.6130 C.3    51  GLN51       0.0908
     40  CD        16.7980   49.7340   -8.2290 C.2    51  GLN51       0.2608
     41  OE1       17.9390   50.0760   -7.9110 O.2    51  GLN51      -0.2717
     42  NE2       15.7570   49.8300   -7.3980 N.am   51  GLN51      -0.0878
     43  N         16.9110   51.9190  -13.0980 N.am   52  VAL52      -0.1964
     44  CA        17.5290   53.0250  -13.8070 C.3    52  VAL52       0.1712
     45  C         17.7140   54.1190  -12.7460 C.2    52  VAL52       0.2458
     46  O         16.9960   54.1430  -11.7450 O.2    52  VAL52      -0.2730
     47  CB        16.6350   53.5480  -14.9760 C.3    52  VAL52       0.0289
     48  CG1       16.3250   52.4090  -15.9310 C.3    52  VAL52       0.0023
     49  CG2       15.3520   54.1770  -14.4420 C.3    52  VAL52       0.0023
     50  N         18.6880   55.0290  -12.9350 N.am   53  PRO53      -0.2727
     51  CA        19.6250   55.1230  -14.0590 C.3    53  PRO53       0.1402
     52  C         20.7710   54.1250  -14.0080 C.2    53  PRO53       0.2269
     53  O         21.0250   53.4880  -12.9950 O.2    53  PRO53      -0.2865
     54  CB        20.1510   56.5420  -13.9390 C.3    53  PRO53       0.0296
     55  CG        20.2020   56.7460  -12.4410 C.3    53  PRO53       0.0237
     56  CD        18.9430   56.0920  -11.9430 C.3    53  PRO53       0.0939
     57  N         23.3330   53.5820   -9.4620 N.3    65  GLU65      -0.1231
     58  CA        23.0280   54.5030   -8.3680 C.3    65  GLU65       0.1699
     59  C         23.2080   55.9430   -8.8240 C.2    65  GLU65       0.2593
     60  O         24.3210   56.3990   -9.0740 O.2    65  GLU65      -0.2718
     61  CB        23.8990   54.2130   -7.1310 C.3    65  GLU65       0.0402
     62  CG        23.8250   52.7750   -6.6290 C.3    65  GLU65       0.1161
     63  CD        22.4790   52.4130   -6.0290 C.2    65  GLU65       0.3649
     64  OE1       21.8490   53.2770   -5.3800 O.co2  65  GLU65      -0.2457
     65  OE2       22.0500   51.2550   -6.1980 O.co2  65  GLU65      -0.2457
     66  N         22.0940   56.6580   -8.9110 N.am   66  GLY66      -0.1942
     67  CA        22.1160   58.0340   -9.3650 C.3    66  GLY66       0.2014
     68  C         23.0900   58.9730   -8.6870 C.2    66  GLY66       0.2638
     69  O         23.7080   59.8070   -9.3530 O.2    66  GLY66      -0.2714
     70  N         23.2150   58.8630   -7.3670 N.am   67  VAL67      -0.1977
     71  CA        24.1190   59.7290   -6.6190 C.3    67  VAL67       0.1596
     72  C         25.5740   59.4980   -7.0410 C.2    67  VAL67       0.2287
     73  O         26.3890   60.4230   -7.0110 O.2    67  VAL67      -0.2864
     74  CB        23.9880   59.4910   -5.0970 C.3    67  VAL67       0.0276
     75  CG1       25.1350   60.1580   -4.3710 C.3    67  VAL67       0.0022
     76  CG2       22.6840   60.0480   -4.5870 C.3    67  VAL67       0.0022
     77  N         18.4000   60.9940   -1.5960 N.3   102  ALA102     -0.1245
     78  CA        18.3180   59.5910   -1.9950 C.3   102  ALA102      0.1562
     79  C         17.6070   58.6940   -0.9950 C.2   102  ALA102      0.2260
     80  O         16.7390   57.9210   -1.3720 O.2   102  ALA102     -0.2867
     81  CB        19.7000   59.0490   -2.2720 C.3   102  ALA102      0.0290
     82  N         13.6470   60.3370   -2.0240 N.3   106  HIS106     -0.1226
     83  CA        13.4940   59.3700   -3.0920 C.3   106  HIS106      0.1752
     84  C         12.8930   58.0600   -2.5840 C.2   106  HIS106      0.2595
     85  O         11.8660   57.6180   -3.0830 O.2   106  HIS106     -0.2718
     86  CB        14.8520   59.1390   -3.7630 C.3   106  HIS106      0.0759
     87  CG        14.8070   58.1970   -4.9260 C.ar  106  HIS106      0.0818
     88  ND1       15.8390   58.0980   -5.8360 N.ar  106  HIS106     -0.2268
     89  CD2       13.8800   57.2860   -5.3080 C.ar  106  HIS106      0.1154
     90  CE1       15.5470   57.1640   -6.7240 C.ar  106  HIS106      0.1986
     91  NE2       14.3640   56.6570   -6.4260 N.ar  106  HIS106     -0.2212
     92  N         13.5220   57.4470   -1.5880 N.am  107  LYS107     -0.1980
     93  CA        13.0230   56.2010   -1.0360 C.3   107  LYS107      0.1596
     94  C         11.7010   56.3890   -0.2970 C.2   107  LYS107      0.2287
     95  O         10.9670   55.4290   -0.0610 O.2   107  LYS107     -0.2864
     96  CB        14.0680   55.6020   -0.1120 C.3   107  LYS107      0.0298
     97  CG        14.6860   54.2910   -0.6260 C.3   107  LYS107      0.0038
     98  CD        15.0170   54.3670   -2.1240 C.3   107  LYS107      0.0206
     99  CE        14.8070   53.0230   -2.7970 C.3   107  LYS107      0.1093
    100  NZ        14.6250   53.1460   -4.2670 N.3   107  LYS107     -0.1314
    101  N         18.6340   66.7590   -8.9550 N.3   157  TYR157     -0.1241
    102  CA        18.0030   65.6460   -8.2580 C.3   157  TYR157      0.1605
    103  C         16.6880   66.0550   -7.5980 C.2   157  TYR157      0.2264
    104  O         15.6840   65.3520   -7.7120 O.2   157  TYR157     -0.2867
    105  CB        18.9720   65.0920   -7.2130 C.3   157  TYR157      0.0534
    106  CG        18.6890   63.6720   -6.7740 C.ar  157  TYR157     -0.0201
    107  CD1       17.7400   62.8850   -7.4330 C.ar  157  TYR157     -0.0009
    108  CD2       19.3710   63.1150   -5.6900 C.ar  157  TYR157     -0.0009
    109  CE1       17.4810   61.5950   -7.0340 C.ar  157  TYR157      0.0417
    110  CE2       19.1190   61.8130   -5.2780 C.ar  157  TYR157      0.0417
    111  CZ        18.1750   61.0570   -5.9540 C.ar  157  TYR157      0.1957
    112  OH        17.9510   59.7560   -5.5630 O.3   157  TYR157     -0.2866
    113  N          7.3410   64.1460   -9.3660 N.3   164  TRP164     -0.1241
    114  CA         6.4260   63.0410   -9.0700 C.3   164  TRP164      0.1605
    115  C          5.2600   63.4040   -8.1760 C.2   164  TRP164      0.2264
    116  O          4.2270   62.7390   -8.2010 O.2   164  TRP164     -0.2867
    117  CB         7.1590   61.8780   -8.3980 C.3   164  TRP164      0.0550
    118  CG         8.3610   61.3680   -9.1130 C.ar  164  TRP164      0.0003
    119  CD1        8.6890   61.5590  -10.4230 C.ar  164  TRP164      0.0946
    120  CD2        9.3930   60.5420   -8.5550 C.ar  164  TRP164      0.0152
    121  NE1        9.8610   60.9020  -10.7170 N.ar  164  TRP164     -0.2442
    122  CE2       10.3120   60.2710   -9.5870 C.ar  164  TRP164      0.0810
    123  CE3        9.6260   60.0060   -7.2830 C.ar  164  TRP164      0.0012
    124  CZ2       11.4510   59.4810   -9.3840 C.ar  164  TRP164      0.0191
    125  CZ3       10.7560   59.2230   -7.0820 C.ar  164  TRP164      0.0001
    126  CH2       11.6520   58.9680   -8.1270 C.ar  164  TRP164      0.0015
@<TRIPOS>BOND
     1    24    23    2
     2    23    22    1
     3    21    22    1
     4    22    25    1
     5    13    14    1
     6    25    26    1
     7    14    15    1
     8    14    17    1
     9    15    16    2
    10    48    47    1
    11    26    27    1
    12    19    18    1
    13    17    18    1
    14    27    28    1
    15     1     2    1
    16    47    49    1
    17    47    44    1
    18    18    20    1
    19     5     2    1
    20     5     6    1
    21    51    52    1
    22    51    54    1
    23    51    50    1
    24    52    53    2
    25    54    55    1
    26     2     3    1
    27    44    43    1
    28    44    45    1
    29    28    29    1
    30     4     3    2
    31    37    36    2
    32     3     7   am
    33    43    36   am
    34    36    35    1
    35    50    45   am
    36    50    56    1
    37    45    46    2
    38    33    32    2
    39    31    32    1
    40    31    30    1
    41    32    34   am
    42    55    56    1
    43     9    10    2
    44     9     8    1
    45    34    35    1
    46     7     8    1
    47    35    38    1
    48     8    11    1
    49   121   119   ar
    50   121   122   ar
    51    38    39    1
    52   119   118   ar
    53    12    11    1
    54    39    40    1
    55   122   124   ar
    56   122   120   ar
    57    57    58    1
    58   124   126   ar
    59   113   114    1
    60    67    66    1
    61    67    68    1
    62    69    68    2
    63   118   120   ar
    64   118   117    1
    65    60    59    2
    66   114   117    1
    67   114   115    1
    68   101   102    1
    69    66    59   am
    70    59    58    1
    71    68    70   am
    72   120   123   ar
    73    58    61    1
    74   102   103    1
    75   102   105    1
    76    40    41    2
    77    40    42   am
    78   116   115    2
    79   126   125   ar
    80   104   103    2
    81   107   109   ar
    82   107   106   ar
    83    70    71    1
    84   123   125   ar
    85   105   106    1
    86    61    62    1
    87    72    73    2
    88    72    71    1
    89   109   111   ar
    90   106   108   ar
    91    90    91   ar
    92    90    88   ar
    93    62    63    1
    94    71    74    1
    95    91    89   ar
    96    65    63   ar
    97    63    64   ar
    98   111   112    1
    99   111   110   ar
   100    88    87   ar
   101   108   110   ar
   102    89    87   ar
   103    74    76    1
   104    74    75    1
   105    87    86    1
   106   100    99    1
   107    86    83    1
   108    83    84    1
   109    83    82    1
   110    85    84    2
   111    99    98    1
   112    84    92   am
   113    81    78    1
   114    98    97    1
   115    78    77    1
   116    78    79    1
   117    92    93    1
   118    80    79    2
   119    93    94    1
   120    93    96    1
   121    97    96    1
   122    94    95    2
