@<TRIPOS>MOLECULE
tmp/2pmvC00.pdb
 91 86 0 0 0
SMALL
GASTEIGER

@<TRIPOS>ATOM
      1  N        -55.2480   97.2270  122.9530 N.3   280  ASN280     -0.1240
      2  CA       -53.8660   97.6950  123.0800 C.3   280  ASN280      0.1653
      3  C        -53.0610   97.8290  121.7780 C.2   280  ASN280      0.2266
      4  O        -53.5200   97.4280  120.7140 O.2   280  ASN280     -0.2867
      5  CB       -53.1480   96.7360  124.0410 C.3   280  ASN280      0.1155
      6  CG       -51.9840   97.3750  124.7450 C.2   280  ASN280      0.2627
      7  OD1      -51.7590   98.5870  124.6310 O.2   280  ASN280     -0.2716
      8  ND2      -51.2320   96.5660  125.4920 N.am  280  ASN280     -0.0877
      9  N        -48.5280   98.8340  120.5660 N.3   282  GLN282     -0.1231
     10  CA       -47.2140   99.3180  120.9740 C.3   282  GLN282      0.1698
     11  C        -46.3440   99.3430  119.7320 C.2   282  GLN282      0.2592
     12  O        -45.9450   98.2260  119.3420 O.2   282  GLN282     -0.2718
     13  CB       -46.6010   98.3440  121.9870 C.3   282  GLN282      0.0381
     14  CG       -47.1480   98.5180  123.3770 C.3   282  GLN282      0.0905
     15  CD       -47.5890   97.2340  124.0070 C.2   282  GLN282      0.2608
     16  OE1      -47.6680   97.1420  125.2290 O.2   282  GLN282     -0.2717
     17  NE2      -47.8980   96.2290  123.1820 N.am  282  GLN282     -0.0878
     18  N        -46.0230  100.5170  119.1150 N.am  283  LEU283     -0.1980
     19  CA       -45.1690  100.4200  117.9010 C.3   283  LEU283      0.1596
     20  C        -44.2670  101.2650  116.9770 C.2   283  LEU283      0.2287
     21  O        -43.6020  102.2350  117.3670 O.2   283  LEU283     -0.2864
     22  CB       -45.9060   99.5590  116.9000 C.3   283  LEU283      0.0297
     23  CG       -44.9390   98.3510  117.1290 C.3   283  LEU283      0.0022
     24  CD1      -44.2120   98.1770  115.9240 C.3   283  LEU283      0.0001
     25  CD2      -43.7430   98.4760  118.2610 C.3   283  LEU283      0.0001
     26  N        -54.4640   89.7480  118.8330 N.3   348  GLN348     -0.1245
     27  CA       -54.6400   88.5360  119.6270 C.3   348  GLN348      0.1566
     28  C        -55.5680   88.7770  120.8060 C.2   348  GLN348      0.2260
     29  O        -55.4120   89.7440  121.5370 O.2   348  GLN348     -0.2867
     30  CB       -53.2990   88.0260  120.1440 C.3   348  GLN348      0.0367
     31  CG       -53.4380   86.7860  121.0010 C.3   348  GLN348      0.0905
     32  CD       -52.1050   86.1840  121.4070 C.2   348  GLN348      0.2608
     33  OE1      -52.0430   85.0270  121.8200 O.2   348  GLN348     -0.2717
     34  NE2      -51.0380   86.9650  121.3040 N.am  348  GLN348     -0.0878
     35  N        -57.3530   87.5930  124.4530 N.3   350  LEU350     -0.1245
     36  CA       -57.0350   86.8140  125.6340 C.3   350  LEU350      0.1561
     37  C        -57.8710   87.1940  126.8410 C.2   350  LEU350      0.2260
     38  O        -58.3010   88.3350  126.9850 O.2   350  LEU350     -0.2867
     39  CB       -55.5340   86.9060  125.9510 C.3   350  LEU350      0.0270
     40  CG       -54.7920   88.2450  126.0580 C.3   350  LEU350      0.0019
     41  CD1      -53.3020   87.9420  126.1890 C.3   350  LEU350      0.0001
     42  CD2      -55.0270   89.1240  124.8460 C.3   350  LEU350      0.0001
     43  N        -54.6040   86.8910  130.8510 N.3   353  VAL353     -0.1245
     44  CA       -53.3150   86.8550  130.1720 C.3   353  VAL353      0.1561
     45  C        -53.2120   85.7060  129.1420 C.2   353  VAL353      0.2260
     46  O        -52.3540   85.7300  128.2430 O.2   353  VAL353     -0.2867
     47  CB       -52.1630   86.7190  131.2020 C.3   353  VAL353      0.0252
     48  CG1      -52.1620   85.3050  131.8040 C.3   353  VAL353      0.0019
     49  CG2      -50.8240   87.0520  130.5410 C.3   353  VAL353      0.0019
     50  N        -54.4320   83.4140  125.9500 N.3   355  PRO355     -0.2116
     51  CA       -55.1380   83.5910  124.6760 C.3   355  PRO355      0.1372
     52  C        -56.3800   82.7130  124.5430 C.2   355  PRO355      0.2244
     53  O        -56.4050   81.5690  125.0150 O.2   355  PRO355     -0.2868
     54  CB       -54.0740   83.2320  123.6310 C.3   355  PRO355      0.0268
     55  CG       -52.7740   83.4380  124.3530 C.3   355  PRO355      0.0207
     56  CD       -53.0840   82.8730  125.7140 C.3   355  PRO355      0.0892
     57  N        -54.6190   92.7750  122.4110 N.3   374  ASN374     -0.1225
     58  CA       -53.2420   93.2330  122.1520 C.3   374  ASN374      0.1785
     59  C        -52.8370   93.0660  120.6590 C.2   374  ASN374      0.2597
     60  O        -52.9920   91.9550  120.0770 O.2   374  ASN374     -0.2718
     61  CB       -52.2930   92.4010  123.0320 C.3   374  ASN374      0.1169
     62  CG       -50.8350   92.8770  123.1440 C.2   374  ASN374      0.2627
     63  OD1      -50.5200   94.0370  122.9230 O.2   374  ASN374     -0.2716
     64  ND2      -49.9510   91.9280  123.4930 N.am  374  ASN374     -0.0877
     65  N        -52.3460   94.1400  120.0330 N.am  375  PHE375     -0.1962
     66  CA       -51.9380   94.0600  118.6330 C.3   375  PHE375      0.1771
     67  C        -50.4790   93.5940  118.5860 C.2   375  PHE375      0.2620
     68  O        -49.5510   94.4150  118.5060 O.2   375  PHE375     -0.2715
     69  CB       -52.0570   95.4370  118.0020 C.3   375  PHE375      0.0574
     70  CG       -51.8160   95.4550  116.5090 C.ar  375  PHE375     -0.0200
     71  CD1      -52.7820   94.9590  115.6330 C.ar  375  PHE375     -0.0042
     72  CD2      -50.6140   95.9470  115.9700 C.ar  375  PHE375     -0.0042
     73  CE1      -52.5700   94.9420  114.2330 C.ar  375  PHE375     -0.0003
     74  CE2      -50.3870   95.9340  114.5600 C.ar  375  PHE375     -0.0003
     75  CZ       -51.3760   95.4270  113.6950 C.ar  375  PHE375     -0.0000
     76  N        -50.2880   92.2800  118.6240 N.am  376  THR376     -0.1937
     77  CA       -48.9640   91.6870  118.6350 C.3   376  THR376      0.2028
     78  C        -48.5540   91.1750  117.2450 C.2   376  THR376      0.2642
     79  O        -49.1760   91.4820  116.2340 O.2   376  THR376     -0.2714
     80  CB       -48.9660   90.5400  119.6900 C.3   376  THR376      0.1808
     81  OG1      -47.6620   89.9680  119.8250 O.3   376  THR376     -0.2208
     82  CG2      -49.9630   89.4660  119.2930 C.3   376  THR376      0.0379
     83  N        -47.4790   90.4040  117.2090 N.am  377  GLN377     -0.1976
     84  CA       -46.9870   89.8030  115.9790 C.3   377  GLN377      0.1601
     85  C        -46.9150   88.3240  116.2810 C.2   377  GLN377      0.2287
     86  O        -46.9910   87.9090  117.4450 O.2   377  GLN377     -0.2864
     87  CB       -45.5920   90.3160  115.6280 C.3   377  GLN377      0.0394
     88  CG       -45.5460   91.7900  115.2930 C.3   377  GLN377      0.0908
     89  CD       -44.1880   92.2250  114.7750 C.2   377  GLN377      0.2608
     90  OE1      -43.7830   91.8570  113.6690 O.2   377  GLN377     -0.2717
     91  NE2      -43.4700   93.0080  115.5800 N.am  377  GLN377     -0.0878
@<TRIPOS>BOND
     1    90    89    2
     2    75    73   ar
     3    75    74   ar
     4    73    71   ar
     5    74    72   ar
     6    89    88    1
     7    89    91   am
     8    88    87    1
     9    87    84    1
    10    71    70   ar
    11    24    23    1
    12    72    70   ar
    13    84    85    1
    14    84    83    1
    15    79    78    2
    16    85    86    2
    17    70    69    1
    18    22    23    1
    19    22    19    1
    20    20    21    2
    21    20    19    1
    22    23    25    1
    23    83    78   am
    24    78    77    1
    25    19    18    1
    26    69    66    1
    27    68    67    2
    28    67    76   am
    29    67    66    1
    30    76    77    1
    31    66    65    1
    32    77    80    1
    33    26    27    1
    34    18    11   am
    35    82    80    1
    36    12    11    2
    37    27    30    1
    38    27    28    1
    39    80    81    1
    40    11    10    1
    41    65    59   am
    42    60    59    2
    43    30    31    1
    44     9    10    1
    45    59    58    1
    46     4     3    2
    47    28    29    2
    48    10    13    1
    49    31    32    1
    50    34    32   am
    51    32    33    2
    52     3     2    1
    53    13    14    1
    54    58    57    1
    55    58    61    1
    56    63    62    2
    57     1     2    1
    58    61    62    1
    59     2     5    1
    60    62    64   am
    61    17    15   am
    62    14    15    1
    63    54    55    1
    64    54    51    1
    65    15    16    2
    66     5     6    1
    67    55    56    1
    68    35    36    1
    69    52    51    1
    70    52    53    2
    71     7     6    2
    72    51    50    1
    73     6     8   am
    74    42    40    1
    75    36    39    1
    76    36    37    1
    77    56    50    1
    78    39    40    1
    79    40    41    1
    80    37    38    2
    81    46    45    2
    82    45    44    1
    83    44    43    1
    84    44    47    1
    85    49    47    1
    86    47    48    1
