@<TRIPOS>MOLECULE
tmp/2pncA01.pdb
 119 115 0 0 0
SMALL
GASTEIGER

@<TRIPOS>ATOM
      1  N         30.5770  -13.8730   47.0240 N.3   285  ALA285     -0.1245
      2  CA        29.9340  -14.2010   45.7580 C.3   285  ALA285      0.1562
      3  C         29.5130  -15.6660   45.7630 C.2   285  ALA285      0.2260
      4  O         30.3040  -16.5440   46.1070 O.2   285  ALA285     -0.2867
      5  CB        30.8720  -13.9220   44.5980 C.3   285  ALA285      0.0290
      6  N         27.7700  -18.6310   43.3240 N.3   287  TYR287     -0.1241
      7  CA        27.4140  -18.9640   41.9460 C.3   287  TYR287      0.1605
      8  C         26.5230  -20.1950   41.8150 C.2   287  TYR287      0.2264
      9  O         26.3020  -20.9330   42.7750 O.2   287  TYR287     -0.2867
     10  CB        28.6740  -19.1730   41.1020 C.3   287  TYR287      0.0534
     11  CG        29.4200  -17.9070   40.7580 C.ar  287  TYR287     -0.0201
     12  CD1       30.2790  -17.3140   41.6740 C.ar  287  TYR287     -0.0009
     13  CD2       29.2800  -17.3130   39.5100 C.ar  287  TYR287     -0.0009
     14  CE1       30.9700  -16.1590   41.3620 C.ar  287  TYR287      0.0417
     15  CE2       29.9660  -16.1560   39.1900 C.ar  287  TYR287      0.0417
     16  CZ        30.8100  -15.5850   40.1190 C.ar  287  TYR287      0.1957
     17  OH        31.4960  -14.4350   39.8050 O.3   287  TYR287     -0.2866
     18  N         32.6260  -17.3270   47.3190 N.3   299  TYR299     -0.1241
     19  CA        33.7820  -16.4790   47.5950 C.3   299  TYR299      0.1605
     20  C         33.7430  -15.7450   48.9310 C.2   299  TYR299      0.2264
     21  O         32.6990  -15.2640   49.3730 O.2   299  TYR299     -0.2867
     22  CB        34.0190  -15.4790   46.4600 C.3   299  TYR299      0.0534
     23  CG        34.7040  -16.0720   45.2490 C.ar  299  TYR299     -0.0201
     24  CD1       35.7550  -16.9710   45.3910 C.ar  299  TYR299     -0.0009
     25  CD2       34.3120  -15.7200   43.9640 C.ar  299  TYR299     -0.0009
     26  CE1       36.3860  -17.5140   44.2850 C.ar  299  TYR299      0.0417
     27  CE2       34.9390  -16.2540   42.8530 C.ar  299  TYR299      0.0417
     28  CZ        35.9750  -17.1510   43.0200 C.ar  299  TYR299      0.1957
     29  OH        36.6000  -17.6860   41.9170 O.3   299  TYR299     -0.2866
     30  N         36.2510  -13.0660   49.4760 N.3   301  ASP301     -0.1239
     31  CA        37.3550  -12.4030   48.7770 C.3   301  ASP301      0.1674
     32  C         38.5260  -11.9170   49.6320 C.2   301  ASP301      0.2266
     33  O         39.6200  -11.6990   49.1110 O.2   301  ASP301     -0.2867
     34  CB        36.8190  -11.2560   47.9140 C.3   301  ASP301      0.1410
     35  CG        35.9940  -11.7490   46.7400 C.2   301  ASP301      0.3668
     36  OD1       36.1700  -12.9170   46.3340 O.co2 301  ASP301     -0.2456
     37  OD2       35.1720  -10.9650   46.2220 O.co2 301  ASP301     -0.2456
     38  N         41.7760  -13.4660   49.3610 N.3   304  PHE304     -0.1241
     39  CA        42.6790  -13.0520   48.2960 C.3   304  PHE304      0.1605
     40  C         43.2280  -11.6610   48.5840 C.2   304  PHE304      0.2264
     41  O         44.4180  -11.4030   48.4020 O.2   304  PHE304     -0.2867
     42  CB        41.9670  -13.0890   46.9420 C.3   304  PHE304      0.0534
     43  CG        41.3480  -14.4200   46.6220 C.ar  304  PHE304     -0.0203
     44  CD1       39.9720  -14.5850   46.6520 C.ar  304  PHE304     -0.0042
     45  CD2       42.1420  -15.5110   46.3030 C.ar  304  PHE304     -0.0042
     46  CE1       39.3990  -15.8120   46.3620 C.ar  304  PHE304     -0.0003
     47  CE2       41.5760  -16.7400   46.0130 C.ar  304  PHE304     -0.0003
     48  CZ        40.2020  -16.8900   46.0420 C.ar  304  PHE304     -0.0000
     49  N         38.9130   -2.3930   44.0570 N.3   371  SER371     -0.1202
     50  CA        39.5010   -3.7260   44.1330 C.3   371  SER371      0.2020
     51  C         39.2840   -4.4680   42.8180 C.2   371  SER371      0.2619
     52  O         38.1860   -4.4480   42.2620 O.2   371  SER371     -0.2717
     53  CB        38.8950   -4.5190   45.2920 C.3   371  SER371      0.2103
     54  OG        39.1340   -3.8750   46.5310 O.3   371  SER371     -0.2182
     55  N         40.3300   -5.1230   42.3250 N.am  372  THR372     -0.1938
     56  CA        40.2640   -5.8070   41.0360 C.3   372  THR372      0.2028
     57  C         40.8710   -7.2070   41.0840 C.2   372  THR372      0.2642
     58  O         42.0220   -7.3830   41.4860 O.2   372  THR372     -0.2714
     59  CB        40.9760   -4.9960   39.9360 C.3   372  THR372      0.1808
     60  OG1       40.3380   -3.7210   39.7890 O.3   372  THR372     -0.2208
     61  CG2       40.9380   -5.7380   38.6050 C.3   372  THR372      0.0379
     62  N         40.0870   -8.1970   40.6680 N.am  373  MET373     -0.1962
     63  CA        40.5600   -9.5730   40.5700 C.3   373  MET373      0.1736
     64  C         40.1240  -10.1840   39.2420 C.2   373  MET373      0.2616
     65  O         38.9330  -10.4020   39.0130 O.2   373  MET373     -0.2715
     66  CB        40.0330  -10.4130   41.7370 C.3   373  MET373      0.0427
     67  CG        40.4750   -9.9250   43.1080 C.3   373  MET373      0.0599
     68  SD        39.7280  -10.8520   44.4620 S.3   373  MET373     -0.1393
     69  CE        40.2170   -9.8530   45.8660 C.3   373  MET373      0.0692
     70  N         41.0960  -10.4550   38.3740 N.am  374  LEU374     -0.1977
     71  CA        40.8270  -11.0030   37.0460 C.3   374  LEU374      0.1596
     72  C         39.8550  -10.1180   36.2720 C.2   374  LEU374      0.2287
     73  O         38.8160  -10.5870   35.8050 O.2   374  LEU374     -0.2864
     74  CB        40.2800  -12.4310   37.1490 C.3   374  LEU374      0.0297
     75  CG        41.2440  -13.4970   37.6710 C.3   374  LEU374      0.0022
     76  CD1       40.4860  -14.7250   38.1520 C.3   374  LEU374      0.0001
     77  CD2       42.2690  -13.8710   36.6080 C.3   374  LEU374      0.0001
     78  N         35.6760   -6.0900   39.3010 N.3   376  ASP376     -0.1225
     79  CA        35.9870   -4.7690   39.8370 C.3   376  ASP376      0.1805
     80  C         34.9760   -4.3140   40.8850 C.2   376  ASP376      0.2597
     81  O         33.8180   -4.0460   40.5660 O.2   376  ASP376     -0.2718
     82  CB        36.0490   -3.7330   38.7120 C.3   376  ASP376      0.1424
     83  CG        37.2930   -3.8650   37.8630 C.2   376  ASP376      0.3668
     84  OD1       38.4010   -3.9060   38.4330 O.co2 376  ASP376     -0.2456
     85  OD2       37.1650   -3.9150   36.6220 O.co2 376  ASP376     -0.2456
     86  N         35.4210   -4.2310   42.1350 N.am  377  TYR377     -0.1976
     87  CA        34.6270   -3.6090   43.1830 C.3   377  TYR377      0.1639
     88  C         35.0780   -2.1650   43.3560 C.2   377  TYR377      0.2290
     89  O         36.2350   -1.9100   43.6880 O.2   377  TYR377     -0.2864
     90  CB        34.8050   -4.3330   44.5170 C.3   377  TYR377      0.0560
     91  CG        34.1430   -5.6880   44.6280 C.ar  377  TYR377     -0.0198
     92  CD1       34.8300   -6.7690   45.1650 C.ar  377  TYR377     -0.0009
     93  CD2       32.8320   -5.8860   44.2130 C.ar  377  TYR377     -0.0009
     94  CE1       34.2340   -8.0090   45.2840 C.ar  377  TYR377      0.0417
     95  CE2       32.2270   -7.1270   44.3250 C.ar  377  TYR377      0.0417
     96  CZ        32.9340   -8.1850   44.8590 C.ar  377  TYR377      0.1957
     97  OH        32.3400   -9.4200   44.9730 O.3   377  TYR377     -0.2866
     98  N         29.7230   -3.0110   41.3830 N.3   395  ALA395     -0.1231
     99  CA        30.4840   -4.0180   40.6600 C.3   395  ALA395      0.1694
    100  C         30.5450   -3.6230   39.1900 C.2   395  ALA395      0.2592
    101  O         29.7070   -2.8540   38.7150 O.2   395  ALA395     -0.2718
    102  CB        29.8430   -5.3870   40.8190 C.3   395  ALA395      0.0304
    103  N         31.5360   -4.1460   38.4750 N.am  396  THR396     -0.1953
    104  CA        31.6980   -3.8660   37.0490 C.3   396  THR396      0.1897
    105  C         32.8210   -4.7090   36.4580 C.2   396  THR396      0.2313
    106  O         33.6200   -5.2930   37.1900 O.2   396  THR396     -0.2863
    107  CB        31.9890   -2.3730   36.7830 C.3   396  THR396      0.1794
    108  OG1       32.2050   -2.1650   35.3810 O.3   396  THR396     -0.2208
    109  CG2       33.2200   -1.9150   37.5530 C.3   396  THR396      0.0378
    110  N         26.0290  -11.1040   44.7550 N.3   426  HIS426     -0.1241
    111  CA        27.1160  -10.3110   45.3110 C.3   426  HIS426      0.1621
    112  C         26.7230   -9.8330   46.7000 C.2   426  HIS426      0.2264
    113  O         25.5690   -9.4790   46.9360 O.2   426  HIS426     -0.2867
    114  CB        27.4410   -9.1180   44.4130 C.3   426  HIS426      0.0745
    115  CG        27.9410   -9.5010   43.0550 C.ar  426  HIS426      0.0817
    116  ND1       29.1960  -10.0300   42.8440 N.ar  426  HIS426     -0.2268
    117  CD2       27.3570   -9.4220   41.8360 C.ar  426  HIS426      0.1154
    118  CE1       29.3610  -10.2660   41.5550 C.ar  426  HIS426      0.1986
    119  NE2       28.2610   -9.9040   40.9210 N.ar  426  HIS426     -0.2212
@<TRIPOS>BOND
     1   108   107    1
     2    73    72    2
     3    72    71    1
     4   105   104    1
     5   105   106    2
     6    77    75    1
     7    85    83   ar
     8   107   104    1
     9   107   109    1
    10    71    74    1
    11    71    70    1
    12   104   103    1
    13    74    75    1
    14    75    76    1
    15    83    84   ar
    16    83    82    1
    17    70    64   am
    18   103   100   am
    19    61    59    1
    20    82    79    1
    21   101   100    2
    22    65    64    2
    23    15    13   ar
    24    15    16   ar
    25   100    99    1
    26    64    63    1
    27    78    79    1
    28    13    11   ar
    29    60    59    1
    30    17    16    1
    31    79    80    1
    32    59    56    1
    33    16    14   ar
    34    81    80    2
    35    63    62    1
    36    63    66    1
    37    99   102    1
    38    99    98    1
    39    62    57   am
    40    11    10    1
    41    11    12   ar
    42    80    86   am
    43   119   118   ar
    44   119   117   ar
    45    56    57    1
    46    56    55    1
    47    57    58    2
    48    10     7    1
    49    14    12   ar
    50   118   116   ar
    51    66    67    1
    52     8     7    1
    53     8     9    2
    54   117   115   ar
    55    29    28    1
    56     7     6    1
    57    86    87    1
    58    52    51    2
    59    55    51   am
    60    51    50    1
    61   116   115   ar
    62    27    28   ar
    63    27    25   ar
    64    28    26   ar
    65   115   114    1
    66    67    68    1
    67    87    88    1
    68    87    90    1
    69    88    89    2
    70    25    23   ar
    71    49    50    1
    72    50    53    1
    73    93    95   ar
    74    93    91   ar
    75    26    24   ar
    76    95    96   ar
    77   114   111    1
    78    68    69    1
    79    90    91    1
    80     5     2    1
    81    91    92   ar
    82   110   111    1
    83    96    97    1
    84    96    94   ar
    85    92    94   ar
    86    23    24   ar
    87    23    22    1
    88    53    54    1
    89   111   112    1
    90     2     3    1
    91     2     1    1
    92     3     4    2
    93    47    48   ar
    94    47    45   ar
    95    48    46   ar
    96    37    35   ar
    97    45    43   ar
    98    36    35   ar
    99    46    44   ar
   100    22    19    1
   101    43    44   ar
   102    43    42    1
   103   112   113    2
   104    35    34    1
   105    42    39    1
   106    18    19    1
   107    19    20    1
   108    34    31    1
   109    39    40    1
   110    39    38    1
   111    41    40    2
   112    31    30    1
   113    31    32    1
   114    20    21    2
   115    33    32    2
