@<TRIPOS>MOLECULE
tmp/2pnfA01.pdb
 141 135 0 0 0
SMALL
GASTEIGER

@<TRIPOS>ATOM
      1  N         30.0010   25.1250   38.3620 N.3    96  THR96      -0.1218
      2  CA        30.2730   24.4810   37.0660 C.3    96  THR96       0.1862
      3  C         28.9030   24.0780   36.5060 C.2    96  THR96       0.2287
      4  O         27.9530   23.8870   37.2640 O.2    96  THR96      -0.2866
      5  CB        31.1060   23.1610   37.1630 C.3    96  THR96       0.1770
      6  OG1       30.5150   22.2850   38.1490 O.3    96  THR96      -0.2211
      7  CG2       32.5550   23.4680   37.5420 C.3    96  THR96       0.0375
      8  N         41.4720   28.1850   39.1810 N.3   144  SER144     -0.1202
      9  CA        41.5920   26.7080   39.0390 C.3   144  SER144      0.2020
     10  C         42.6270   26.3650   38.0020 C.2   144  SER144      0.2619
     11  O         42.8030   27.0810   37.0190 O.2   144  SER144     -0.2717
     12  CB        40.2380   26.0790   38.5910 C.3   144  SER144      0.2103
     13  OG        40.3660   24.7100   38.1760 O.3   144  SER144     -0.2182
     14  N         43.3160   25.2510   38.2140 N.am  145  VAL145     -0.1965
     15  CA        44.2890   24.8050   37.2630 C.3   145  VAL145      0.1727
     16  C         43.6340   24.7260   35.8750 C.2   145  VAL145      0.2616
     17  O         44.3030   24.9210   34.8560 O.2   145  VAL145     -0.2715
     18  CB        44.8270   23.3560   37.6570 C.3   145  VAL145      0.0290
     19  CG1       43.6780   22.3130   37.5950 C.3   145  VAL145      0.0023
     20  CG2       45.9350   22.9420   36.7220 C.3   145  VAL145      0.0023
     21  N         42.3290   24.4550   35.8320 N.am  146  VAL146     -0.1977
     22  CA        41.6180   24.3030   34.5570 C.3   146  VAL146      0.1596
     23  C         41.5100   25.6210   33.7400 C.2   146  VAL146      0.2287
     24  O         41.3430   25.6000   32.5040 O.2   146  VAL146     -0.2864
     25  CB        40.2510   23.5930   34.8530 C.3   146  VAL146      0.0276
     26  CG1       39.2300   23.9220   33.8740 C.3   146  VAL146      0.0022
     27  CG2       40.5130   22.0740   34.8930 C.3   146  VAL146      0.0022
     28  N         39.9030   22.3610   29.8360 N.3   151  ASN151     -0.1240
     29  CA        39.4040   21.0230   30.2240 C.3   151  ASN151      0.1653
     30  C         38.1840   20.6920   29.4000 C.2   151  ASN151      0.2266
     31  O         37.2650   21.5080   29.2850 O.2   151  ASN151     -0.2867
     32  CB        39.0050   20.9820   31.7270 C.3   151  ASN151      0.1155
     33  CG        38.7460   19.5480   32.2360 C.2   151  ASN151      0.2627
     34  OD1       39.3900   18.6090   31.7960 O.2   151  ASN151     -0.2716
     35  ND2       37.8180   19.3970   33.1750 N.am  151  ASN151     -0.0877
     36  N         34.2840   21.6620   29.9790 N.3   154  GLN154     -0.1245
     37  CA        34.2410   22.8230   30.8730 C.3   154  GLN154      0.1566
     38  C         34.6720   24.1230   30.1780 C.2   154  GLN154      0.2260
     39  O         35.3540   24.9620   30.7810 O.2   154  GLN154     -0.2867
     40  CB        35.1530   22.5670   32.0760 C.3   154  GLN154      0.0367
     41  CG        34.6910   21.3740   32.9120 C.3   154  GLN154      0.0905
     42  CD        35.2630   21.3950   34.3220 C.2   154  GLN154      0.2608
     43  OE1       36.5030   21.4590   34.4980 O.2   154  GLN154     -0.2717
     44  NE2       34.3760   21.3350   35.3360 N.am  154  GLN154     -0.0878
     45  N         33.4230   26.9730   32.4150 N.3   157  TYR157     -0.1241
     46  CA        34.1750   27.0920   33.6500 C.3   157  TYR157      0.1605
     47  C         35.6050   27.5500   33.4060 C.2   157  TYR157      0.2264
     48  O         36.0810   28.4280   34.1270 O.2   157  TYR157     -0.2867
     49  CB        34.1980   25.7400   34.3890 C.3   157  TYR157      0.0534
     50  CG        34.8610   25.7900   35.7510 C.ar  157  TYR157     -0.0201
     51  CD1       34.2670   26.4750   36.7970 C.ar  157  TYR157     -0.0009
     52  CD2       36.0650   25.1280   35.9930 C.ar  157  TYR157     -0.0009
     53  CE1       34.8540   26.5070   38.0690 C.ar  157  TYR157      0.0417
     54  CE2       36.6660   25.1480   37.2660 C.ar  157  TYR157      0.0417
     55  CZ        36.0530   25.8370   38.2970 C.ar  157  TYR157      0.1957
     56  OH        36.6000   25.8010   39.5670 O.3   157  TYR157     -0.2866
     57  N         44.5390   22.6510   42.2510 N.3   188  GLY188     -0.1210
     58  CA        44.4910   21.5950   41.2640 C.3   188  GLY188      0.1956
     59  C         43.3400   20.6800   41.6770 C.2   188  GLY188      0.2612
     60  O         42.2040   21.1410   41.8050 O.2   188  GLY188     -0.2717
     61  N         43.6280   19.4010   41.8890 N.am  189  PHE189     -0.1962
     62  CA        42.5960   18.4040   42.2700 C.3   189  PHE189      0.1771
     63  C         42.5750   18.2780   43.7840 C.2   189  PHE189      0.2619
     64  O         43.5040   17.7770   44.3880 O.2   189  PHE189     -0.2715
     65  CB        42.9110   17.0530   41.6130 C.3   189  PHE189      0.0574
     66  CG        42.8710   17.1070   40.1080 C.ar  189  PHE189     -0.0200
     67  CD1       42.1390   18.1100   39.4630 C.ar  189  PHE189     -0.0042
     68  CD2       43.5690   16.1850   39.3380 C.ar  189  PHE189     -0.0042
     69  CE1       42.1040   18.1970   38.0650 C.ar  189  PHE189     -0.0003
     70  CE2       43.5400   16.2550   37.9350 C.ar  189  PHE189     -0.0003
     71  CZ        42.8080   17.2640   37.2960 C.ar  189  PHE189     -0.0000
     72  N         41.4880   18.7570   44.3840 N.am  190  ILE190     -0.1963
     73  CA        41.3400   18.8120   45.8330 C.3   190  ILE190      0.1727
     74  C         40.2170   17.8710   46.2760 C.2   190  ILE190      0.2616
     75  O         39.1330   17.8280   45.6720 O.2   190  ILE190     -0.2715
     76  CB        40.9690   20.2590   46.2800 C.3   190  ILE190      0.0290
     77  CG1       41.9890   21.2530   45.6990 C.3   190  ILE190      0.0022
     78  CG2       40.8940   20.3550   47.8270 C.3   190  ILE190      0.0023
     79  CD1       43.4390   20.9520   46.0760 C.3   190  ILE190      0.0001
     80  N         40.4710   17.1530   47.3550 N.am  191  GLU191     -0.1963
     81  CA        39.4810   16.2150   47.8640 C.3   191  GLU191      0.1733
     82  C         38.4430   16.8820   48.7680 C.2   191  GLU191      0.2617
     83  O         38.7810   17.4650   49.7920 O.2   191  GLU191     -0.2715
     84  CB        40.1900   15.0890   48.6190 C.3   191  GLU191      0.0429
     85  CG        39.2790   13.9090   48.9410 C.3   191  GLU191      0.1163
     86  CD        40.0670   12.6860   49.3440 C.2   191  GLU191      0.3649
     87  OE1       40.7990   12.1250   48.4900 O.co2 191  GLU191     -0.2457
     88  OE2       39.9570   12.2940   50.5220 O.co2 191  GLU191     -0.2457
     89  N         37.1730   16.8150   48.3610 N.am  192  THR192     -0.1951
     90  CA        36.0770   17.3650   49.1530 C.3   192  THR192      0.1897
     91  C         35.0870   16.1810   49.3450 C.2   192  THR192      0.2313
     92  O         35.3390   15.0770   48.8460 O.2   192  THR192     -0.2863
     93  CB        35.4350   18.5690   48.4090 C.3   192  THR192      0.1794
     94  OG1       34.9420   18.1500   47.1350 O.3   192  THR192     -0.2208
     95  CG2       36.5110   19.6600   48.1350 C.3   192  THR192      0.0378
     96  N         32.4700   15.7630   47.9390 N.3   194  MET194     -0.1230
     97  CA        31.9070   15.4810   46.6250 C.3   194  MET194      0.1702
     98  C         32.7760   14.5030   45.8360 C.2   194  MET194      0.2593
     99  O         32.3060   13.8180   44.9210 O.2   194  MET194     -0.2718
    100  CB        31.7420   16.7730   45.8360 C.3   194  MET194      0.0401
    101  CG        30.8190   17.7710   46.5140 C.3   194  MET194      0.0596
    102  SD        29.2290   17.0460   47.0470 S.3   194  MET194     -0.1393
    103  CE        28.7520   18.2550   48.3340 C.3   194  MET194      0.0692
    104  N         34.0540   14.4380   46.1860 N.am  195  THR195     -0.1953
    105  CA        34.9650   13.5380   45.5000 C.3   195  THR195      0.1897
    106  C         34.5050   12.0940   45.7390 C.2   195  THR195      0.2313
    107  O         34.9360   11.1710   45.0620 O.2   195  THR195     -0.2863
    108  CB        36.3830   13.6980   46.0450 C.3   195  THR195      0.1794
    109  OG1       36.7370   15.0860   46.0220 O.3   195  THR195     -0.2208
    110  CG2       37.3660   12.8760   45.2160 C.3   195  THR195      0.0378
    111  N         33.0480    9.7920   42.8230 N.3   198  LEU198     -0.1245
    112  CA        33.8740    9.3740   41.7010 C.3   198  LEU198      0.1561
    113  C         34.2660    7.9020   41.8880 C.2   198  LEU198      0.2260
    114  O         34.4500    7.4370   43.0140 O.2   198  LEU198     -0.2867
    115  CB        35.1370   10.2520   41.6070 C.3   198  LEU198      0.0270
    116  CG        35.0050   11.7530   41.3120 C.3   198  LEU198      0.0019
    117  CD1       36.3800   12.4430   41.5020 C.3   198  LEU198      0.0001
    118  CD2       34.5040   11.9760   39.8870 C.3   198  LEU198      0.0001
    119  N         42.9590   10.4400   37.7180 N.3   206  TYR206     -0.1241
    120  CA        43.2930   11.8280   38.0500 C.3   206  TYR206      0.1605
    121  C         44.5990   11.9290   38.8370 C.2   206  TYR206      0.2264
    122  O         45.4430   12.7810   38.5470 O.2   206  TYR206     -0.2867
    123  CB        42.1650   12.4820   38.8450 C.3   206  TYR206      0.0534
    124  CG        40.9800   12.8350   37.9850 C.ar  206  TYR206     -0.0201
    125  CD1       41.1400   13.5920   36.8100 C.ar  206  TYR206     -0.0009
    126  CD2       39.6840   12.4150   38.3380 C.ar  206  TYR206     -0.0009
    127  CE1       40.0420   13.9210   36.0060 C.ar  206  TYR206      0.0417
    128  CE2       38.5870   12.7410   37.5510 C.ar  206  TYR206      0.0417
    129  CZ        38.7690   13.4910   36.3890 C.ar  206  TYR206      0.1957
    130  OH        37.6710   13.8110   35.6190 O.3   206  TYR206     -0.2866
    131  N         45.5710   13.7960   46.1640 N.3   215  PHE215     -0.1241
    132  CA        44.7450   14.9910   45.9960 C.3   215  PHE215      0.1605
    133  C         45.1500   15.9010   47.1400 C.2   215  PHE215      0.2264
    134  O         45.6790   15.4260   48.1260 O.2   215  PHE215     -0.2867
    135  CB        43.2530   14.6600   46.1410 C.3   215  PHE215      0.0534
    136  CG        42.7160   13.7650   45.0490 C.ar  215  PHE215     -0.0203
    137  CD1       42.9960   14.0320   43.7140 C.ar  215  PHE215     -0.0042
    138  CD2       41.8600   12.6950   45.3590 C.ar  215  PHE215     -0.0042
    139  CE1       42.4410   13.2720   42.6840 C.ar  215  PHE215     -0.0003
    140  CE2       41.2950   11.9250   44.3410 C.ar  215  PHE215     -0.0003
    141  CZ        41.5750   12.2050   43.0040 C.ar  215  PHE215     -0.0000
@<TRIPOS>BOND
     1    31    30    2
     2    30    29    1
     3    28    29    1
     4    36    37    1
     5    38    39    2
     6    38    37    1
     7    29    32    1
     8    37    40    1
     9    32    33    1
    10    34    33    2
    11    40    41    1
    12    33    35   am
    13    45    46    1
    14    24    23    2
    15    41    42    1
    16    47    46    1
    17    47    48    2
    18    46    49    1
    19    23    22    1
    20    26    25    1
    21    42    43    2
    22    42    44   am
    23    49    50    1
    24    22    25    1
    25    22    21    1
    26    25    27    1
    27    17    16    2
    28   130   129    1
    29    50    52   ar
    30    50    51   ar
    31    21    16   am
    32    16    15    1
    33    52    54   ar
    34   127   129   ar
    35   127   125   ar
    36   129   128   ar
    37     3     2    1
    38     3     4    2
    39    20    18    1
    40    51    53   ar
    41   125   124   ar
    42    11    10    2
    43     2     5    1
    44     2     1    1
    45     5     7    1
    46     5     6    1
    47    15    18    1
    48    15    14    1
    49    54    55   ar
    50    71    70   ar
    51    71    69   ar
    52   128   126   ar
    53    19    18    1
    54   119   120    1
    55    70    68   ar
    56   124   126   ar
    57   124   123    1
    58    10    14   am
    59    10     9    1
    60   120   121    1
    61   120   123    1
    62    69    67   ar
    63    53    55   ar
    64    13    12    1
    65    55    56    1
    66   122   121    2
    67    12     9    1
    68     9     8    1
    69    68    66   ar
    70    67    66   ar
    71   118   116    1
    72    66    65    1
    73    58    59    1
    74    58    57    1
    75   116   117    1
    76   116   115    1
    77   115   112    1
    78    65    62    1
    79    59    60    2
    80    59    61   am
    81   112   113    1
    82   112   111    1
    83   113   114    2
    84    61    62    1
    85    62    63    1
    86   139   141   ar
    87   139   137   ar
    88   141   140   ar
    89   137   136   ar
    90    63    72   am
    91    63    64    2
    92   140   138   ar
    93    72    73    1
    94    99    98    2
    95   136   138   ar
    96   136   135    1
    97   107   106    2
    98   110   108    1
    99   105   106    1
   100   105   108    1
   101   105   104    1
   102    75    74    2
   103    77    79    1
   104    77    76    1
   105    73    74    1
   106    73    76    1
   107   100   101    1
   108   100    97    1
   109    98   104   am
   110    98    97    1
   111   132   135    1
   112   132   131    1
   113   132   133    1
   114   109   108    1
   115    74    80   am
   116    76    78    1
   117   101   102    1
   118    97    96    1
   119   102   103    1
   120    94    93    1
   121   133   134    2
   122    80    81    1
   123    81    84    1
   124    81    82    1
   125    95    93    1
   126    89    82   am
   127    89    90    1
   128    93    90    1
   129    87    86   ar
   130    84    85    1
   131    82    83    2
   132    92    91    2
   133    85    86    1
   134    90    91    1
   135    86    88   ar
