@<TRIPOS>MOLECULE
tmp/2pnfA00.pdb
 88 84 0 0 0
SMALL
GASTEIGER

@<TRIPOS>ATOM
      1  N         48.6800   36.3080   62.7010 N.3     4  LYS4       -0.1231
      2  CA        47.4860   36.5740   63.4580 C.3     4  LYS4        0.1693
      3  C         46.6390   37.6070   62.7550 C.2     4  LYS4        0.2592
      4  O         47.1460   38.5670   62.1800 O.2     4  LYS4       -0.2718
      5  CB        47.8520   37.0000   64.8800 C.3     4  LYS4        0.0285
      6  CG        48.4850   38.3470   65.0000 C.3     4  LYS4        0.0035
      7  CD        48.7820   38.5970   66.4890 C.3     4  LYS4        0.0206
      8  CE        48.7500   40.0640   66.8690 C.3     4  LYS4        0.1093
      9  NZ        48.6030   40.1610   68.3620 N.3     4  LYS4       -0.1314
     10  N         45.3330   37.3590   62.7640 N.am    5  LEU5       -0.1966
     11  CA        44.3980   38.2480   62.1010 C.3     5  LEU5        0.1728
     12  C         43.3660   38.8160   63.0760 C.2     5  LEU5        0.2616
     13  O         42.3240   39.3130   62.6530 O.2     5  LEU5       -0.2715
     14  CB        43.6640   37.5040   60.9620 C.3     5  LEU5        0.0311
     15  CG        44.5890   37.0070   59.8390 C.3     5  LEU5        0.0022
     16  CD1       43.8150   36.1060   58.9160 C.3     5  LEU5        0.0001
     17  CD2       45.1820   38.1720   59.1340 C.3     5  LEU5        0.0001
     18  N         43.6400   38.7490   64.3880 N.am    6  GLN6       -0.1963
     19  CA        42.6670   39.3380   65.3200 C.3     6  GLN6        0.1733
     20  C         42.4290   40.8000   64.9690 C.2     6  GLN6        0.2617
     21  O         43.3550   41.5490   64.6510 O.2     6  GLN6       -0.2715
     22  CB        43.1390   39.2130   66.7920 C.3     6  GLN6        0.0408
     23  CG        42.8660   37.8260   67.4100 C.3     6  GLN6        0.0908
     24  CD        42.8760   37.8970   68.9420 C.2     6  GLN6        0.2608
     25  OE1       43.5870   38.6990   69.5140 O.2     6  GLN6       -0.2717
     26  NE2       42.0950   37.0540   69.5910 N.am    6  GLN6       -0.0878
     27  N         41.1630   41.2020   64.9760 N.am    7  GLY7       -0.1940
     28  CA        40.8500   42.5740   64.6690 C.3     7  GLY7        0.2014
     29  C         40.4380   42.7610   63.2300 C.2     7  GLY7        0.2638
     30  O         39.8290   43.7750   62.9130 O.2     7  GLY7       -0.2714
     31  N         40.7570   41.7950   62.3740 N.am    8  LYS8       -0.1977
     32  CA        40.4080   41.8690   60.9430 C.3     8  LYS8        0.1596
     33  C         39.0950   41.1560   60.7010 C.2     8  LYS8        0.2287
     34  O         38.6860   40.3000   61.5080 O.2     8  LYS8       -0.2864
     35  CB        41.4940   41.1900   60.0810 C.3     8  LYS8        0.0298
     36  CG        42.8950   41.7570   60.1910 C.3     8  LYS8        0.0038
     37  CD        43.2280   42.7390   59.1060 C.3     8  LYS8        0.0206
     38  CE        44.7000   43.1580   59.1940 C.3     8  LYS8        0.1093
     39  NZ        44.9840   43.8570   60.5020 N.3     8  LYS8       -0.1314
     40  N         38.1290   43.6790   55.6380 N.3    87  ASP87      -0.1239
     41  CA        39.5620   43.8640   55.4530 C.3    87  ASP87       0.1674
     42  C         40.1120   42.8520   54.4690 C.2    87  ASP87       0.2266
     43  O         41.0600   43.1480   53.7730 O.2    87  ASP87      -0.2867
     44  CB        40.3110   43.6680   56.7810 C.3    87  ASP87       0.1410
     45  CG        39.7720   44.5640   57.8860 C.2    87  ASP87       0.3668
     46  OD1       39.9270   45.7960   57.7780 O.co2  87  ASP87      -0.2456
     47  OD2       39.1710   44.0410   58.8290 O.co2  87  ASP87      -0.2456
     48  N         36.3480   49.8280   53.3030 N.3   130  LYS130     -0.1245
     49  CA        37.2730   49.9020   54.4360 C.3   130  LYS130      0.1561
     50  C         38.7360   49.7170   54.0370 C.2   130  LYS130      0.2260
     51  O         39.6320   50.3610   54.5830 O.2   130  LYS130     -0.2867
     52  CB        36.8600   48.8750   55.4970 C.3   130  LYS130      0.0271
     53  CG        37.6360   48.9740   56.8300 C.3   130  LYS130      0.0035
     54  CD        37.0350   48.0280   57.8620 C.3   130  LYS130      0.0206
     55  CE        37.6150   48.2550   59.2720 C.3   130  LYS130      0.1093
     56  NZ        39.0510   47.8250   59.4220 N.3   130  LYS130     -0.1314
     57  N         41.6480   52.5780   54.7470 N.3   134  GLN134     -0.1245
     58  CA        42.7790   52.3500   55.6560 C.3   134  GLN134      0.1566
     59  C         44.0940   52.0000   54.9620 C.2   134  GLN134      0.2260
     60  O         45.1220   51.8680   55.6170 O.2   134  GLN134     -0.2867
     61  CB        42.4110   51.2460   56.6640 C.3   134  GLN134      0.0367
     62  CG        42.4690   49.8440   56.0770 C.3   134  GLN134      0.0905
     63  CD        41.6470   48.8430   56.8520 C.2   134  GLN134      0.2608
     64  OE1       41.0590   49.1720   57.8850 O.2   134  GLN134     -0.2717
     65  NE2       41.5910   47.5980   56.3580 N.am  134  GLN134     -0.0878
     66  N         44.9040   49.2130   53.4430 N.3   136  TRP136     -0.1241
     67  CA        45.3200   47.8460   53.7410 C.3   136  TRP136      0.1605
     68  C         44.1270   47.0210   53.3640 C.2   136  TRP136      0.2264
     69  O         42.9950   47.3330   53.7570 O.2   136  TRP136     -0.2867
     70  CB        45.6400   47.6160   55.2290 C.3   136  TRP136      0.0550
     71  CG        46.3540   46.3090   55.4420 C.ar  136  TRP136      0.0003
     72  CD1       47.6990   46.1200   55.5510 C.ar  136  TRP136      0.0946
     73  CD2       45.7510   44.9960   55.5420 C.ar  136  TRP136      0.0152
     74  NE1       47.9800   44.7610   55.7280 N.ar  136  TRP136     -0.2442
     75  CE2       46.8040   44.0610   55.7210 C.ar  136  TRP136      0.0810
     76  CE3       44.4290   44.5280   55.5030 C.ar  136  TRP136      0.0012
     77  CZ2       46.5710   42.6800   55.8620 C.ar  136  TRP136      0.0191
     78  CZ3       44.1940   43.1460   55.6460 C.ar  136  TRP136      0.0001
     79  CH2       45.2670   42.2450   55.8230 C.ar  136  TRP136      0.0015
     80  N         51.0940   38.9230   56.8430 N.3   231  GLU231     -0.1245
     81  CA        52.1060   39.9430   56.6350 C.3   231  GLU231      0.1567
     82  C         53.2680   39.4150   55.7940 C.2   231  GLU231      0.2260
     83  O         54.1160   40.1660   55.3520 O.2   231  GLU231     -0.2867
     84  CB        52.5900   40.5350   57.9610 C.3   231  GLU231      0.0388
     85  CG        51.5570   41.5680   58.4940 C.3   231  GLU231      0.1160
     86  CD        51.1130   42.6260   57.4230 C.2   231  GLU231      0.3649
     87  OE1       51.8740   43.6200   57.2030 O.co2 231  GLU231     -0.2457
     88  OE2       50.0010   42.4660   56.8030 O.co2 231  GLU231     -0.2457
@<TRIPOS>BOND
     1    48    49    1
     2    68    67    1
     3    68    69    2
     4    66    67    1
     5    67    70    1
     6    43    42    2
     7    50    49    1
     8    50    51    2
     9    49    52    1
    10    42    41    1
    11    57    58    1
    12    59    60    2
    13    59    58    1
    14    70    71    1
    15    83    82    2
    16    71    73   ar
    17    71    72   ar
    18    41    40    1
    19    41    44    1
    20    52    53    1
    21    76    73   ar
    22    76    78   ar
    23    73    75   ar
    24    72    74   ar
    25    78    79   ar
    26    58    61    1
    27    75    74   ar
    28    75    77   ar
    29    82    81    1
    30    79    77   ar
    31    62    61    1
    32    62    63    1
    33    65    63   am
    34    81    80    1
    35    81    84    1
    36    44    45    1
    37    88    86   ar
    38    53    54    1
    39    63    64    2
    40    87    86   ar
    41    86    85    1
    42    46    45   ar
    43    54    55    1
    44    45    47   ar
    45    84    85    1
    46    16    15    1
    47    37    38    1
    48    37    36    1
    49    17    15    1
    50    38    39    1
    51    55    56    1
    52    15    14    1
    53    35    36    1
    54    35    32    1
    55    33    32    1
    56    33    34    2
    57    32    31    1
    58    14    11    1
    59    11    10    1
    60    11    12    1
    61     4     3    2
    62    31    29   am
    63    13    12    2
    64     1     2    1
    65     3    10   am
    66     3     2    1
    67    30    29    2
    68    12    18   am
    69    29    28    1
    70     2     5    1
    71    18    19    1
    72    21    20    2
    73    28    27    1
    74     5     6    1
    75    20    27   am
    76    20    19    1
    77     6     7    1
    78    19    22    1
    79     7     8    1
    80    22    23    1
    81     8     9    1
    82    23    24    1
    83    24    25    2
    84    24    26   am
