@<TRIPOS>MOLECULE
tmp/2pnnA00.pdb
 136 128 0 0 0
SMALL
GASTEIGER

@<TRIPOS>ATOM
      1  N         18.2790   14.7300  -25.0010 N.3     5  ARG5       -0.1245
      2  CA        19.3810   15.1580  -25.8740 C.3     5  ARG5        0.1563
      3  C         20.1160   16.3970  -25.3490 C.2     5  ARG5        0.2260
      4  O         21.3500   16.4390  -25.3400 O.2     5  ARG5       -0.2867
      5  CB        18.8510   15.3820  -27.3080 C.3     5  ARG5        0.0307
      6  CG        19.8960   15.7080  -28.4020 C.3     5  ARG5        0.0489
      7  CD        21.3210   15.1780  -28.0940 C.3     5  ARG5        0.2205
      8  NE        21.6090   13.7970  -28.4850 N.pl3   5  ARG5       -0.0865
      9  CZ        22.5470   13.0370  -27.9130 C.cat   5  ARG5        0.5346
     10  NH1       23.2730   13.5040  -26.8970 N.pl3   5  ARG5        0.1354
     11  NH2       22.7560   11.7970  -28.3450 N.pl3   5  ARG5        0.1354
     12  N         22.3800   15.5450  -22.3000 N.3     8  PHE8       -0.1241
     13  CA        23.4360   14.6130  -22.6670 C.3     8  PHE8        0.1605
     14  C         24.5690   15.3260  -23.3890 C.2     8  PHE8        0.2264
     15  O         25.7340   14.9650  -23.2210 O.2     8  PHE8       -0.2867
     16  CB        22.8730   13.4480  -23.4980 C.3     8  PHE8        0.0534
     17  CG        22.3260   12.2940  -22.6620 C.ar    8  PHE8       -0.0203
     18  CD1       22.5110   10.9750  -23.0670 C.ar    8  PHE8       -0.0042
     19  CD2       21.6270   12.5240  -21.4690 C.ar    8  PHE8       -0.0042
     20  CE1       22.0040    9.9100  -22.3060 C.ar    8  PHE8       -0.0003
     21  CE2       21.1240   11.4660  -20.7040 C.ar    8  PHE8       -0.0003
     22  CZ        21.3140   10.1620  -21.1250 C.ar    8  PHE8       -0.0000
     23  N         18.3340    6.3780  -22.1790 N.3    40  ASP40      -0.1239
     24  CA        18.3360    5.7490  -23.5000 C.3    40  ASP40       0.1674
     25  C         17.4530    4.4990  -23.4490 C.2    40  ASP40       0.2266
     26  O         17.7240    3.5830  -22.6640 O.2    40  ASP40      -0.2867
     27  CB        19.7470    5.4030  -23.9980 C.3    40  ASP40       0.1410
     28  CG        19.7330    4.6250  -25.3360 C.2    40  ASP40       0.3668
     29  OD1       18.7110    4.6510  -26.0600 O.co2  40  ASP40      -0.2456
     30  OD2       20.7490    3.9830  -25.6810 O.co2  40  ASP40      -0.2456
     31  N         20.8610    4.0150  -20.0320 N.3    45  LYS45      -0.1245
     32  CA        21.8590    5.0030  -19.6460 C.3    45  LYS45       0.1561
     33  C         21.1750    6.2930  -19.2020 C.2    45  LYS45       0.2260
     34  O         20.1750    6.7220  -19.7940 O.2    45  LYS45      -0.2867
     35  CB        22.7840    5.2870  -20.8300 C.3    45  LYS45       0.0271
     36  CG        24.1770    5.8120  -20.4790 C.3    45  LYS45       0.0035
     37  CD        24.7190    6.8190  -21.5340 C.3    45  LYS45       0.0206
     38  CE        24.6710    6.3270  -22.9830 C.3    45  LYS45       0.1093
     39  NZ        25.5910    7.1170  -23.8390 N.3    45  LYS45      -0.1314
     40  N         26.1850    8.8900  -18.7550 N.3    50  LYS50      -0.1245
     41  CA        26.8440    9.6190  -19.8590 C.3    50  LYS50       0.1561
     42  C         28.0520   10.4020  -19.3230 C.2    50  LYS50       0.2260
     43  O         29.1410   10.3680  -19.9180 O.2    50  LYS50      -0.2867
     44  CB        25.8600   10.5450  -20.6020 C.3    50  LYS50       0.0271
     45  CG        26.4840   11.5640  -21.6050 C.3    50  LYS50       0.0035
     46  CD        26.6590   11.0480  -23.0450 C.3    50  LYS50       0.0206
     47  CE        27.0830   12.1980  -23.9900 C.3    50  LYS50       0.1093
     48  NZ        27.1490   11.8820  -25.4630 N.3    50  LYS50      -0.1314
     49  N         30.9950    8.2690  -18.7170 N.3    52  LEU52      -0.1231
     50  CA        31.7140    7.9280  -19.9460 C.3    52  LEU52       0.1693
     51  C         32.4890    9.1430  -20.4860 C.2    52  LEU52       0.2592
     52  O         33.6240    9.0310  -20.9940 O.2    52  LEU52      -0.2718
     53  CB        30.7410    7.3450  -20.9860 C.3    52  LEU52       0.0284
     54  CG        30.1970    5.9030  -20.7750 C.3    52  LEU52       0.0019
     55  CD1       31.1970    4.9330  -20.1240 C.3    52  LEU52       0.0001
     56  CD2       28.8960    5.8520  -20.0030 C.3    52  LEU52       0.0001
     57  N         31.8830   10.3110  -20.3200 N.am   53  ASN53      -0.1974
     58  CA        32.4860   11.5370  -20.7720 C.3    53  ASN53       0.1688
     59  C         33.3290   12.1820  -19.6810 C.2    53  ASN53       0.2292
     60  O         33.0530   13.2880  -19.2130 O.2    53  ASN53      -0.2864
     61  CB        31.4140   12.4510  -21.3430 C.3    53  ASN53       0.1181
     62  CG        30.6890   11.8070  -22.5030 C.2    53  ASN53       0.2629
     63  OD1       30.7660   12.2810  -23.6270 O.2    53  ASN53      -0.2716
     64  ND2       30.0090   10.6990  -22.2440 N.am   53  ASN53      -0.0877
     65  N         22.4360   -0.4610  -16.4660 N.3    83  TYR83      -0.1241
     66  CA        22.2750   -0.7980  -17.8850 C.3    83  TYR83       0.1605
     67  C         21.3300   -1.9910  -18.0460 C.2    83  TYR83       0.2264
     68  O         21.2770   -2.8650  -17.1850 O.2    83  TYR83      -0.2867
     69  CB        23.6400   -1.1190  -18.5280 C.3    83  TYR83       0.0534
     70  CG        24.4190    0.0830  -19.0320 C.ar   83  TYR83      -0.0201
     71  CD1       25.2570    0.7950  -18.1810 C.ar   83  TYR83      -0.0009
     72  CD2       24.3150    0.5060  -20.3640 C.ar   83  TYR83      -0.0009
     73  CE1       25.9750    1.9090  -18.6370 C.ar   83  TYR83       0.0417
     74  CE2       25.0260    1.6260  -20.8330 C.ar   83  TYR83       0.0417
     75  CZ        25.8630    2.3190  -19.9570 C.ar   83  TYR83       0.1957
     76  OH        26.5850    3.4250  -20.3860 O.3    83  TYR83      -0.2866
     77  N         26.0390   -4.5160  -21.3180 N.3    88  TYR88      -0.1241
     78  CA        26.5380   -3.8980  -20.0820 C.3    88  TYR88       0.1605
     79  C         25.5910   -4.1380  -18.8810 C.2    88  TYR88       0.2264
     80  O         25.7550   -3.5300  -17.8090 O.2    88  TYR88      -0.2867
     81  CB        26.7510   -2.3940  -20.3090 C.3    88  TYR88       0.0534
     82  CG        27.8730   -1.9760  -21.2760 C.ar   88  TYR88      -0.0201
     83  CD1       29.2130   -2.2780  -21.0040 C.ar   88  TYR88      -0.0009
     84  CD2       27.5940   -1.2200  -22.4220 C.ar   88  TYR88      -0.0009
     85  CE1       30.2430   -1.8630  -21.8590 C.ar   88  TYR88       0.0417
     86  CE2       28.6170   -0.8050  -23.2900 C.ar   88  TYR88       0.0417
     87  CZ        29.9420   -1.1300  -23.0010 C.ar   88  TYR88       0.1957
     88  OH        30.9580   -0.7360  -23.8380 O.3    88  TYR88      -0.2866
     89  N         25.3290   -2.8220  -15.0300 N.3    91  GLN91      -0.1245
     90  CA        26.3630   -1.8430  -14.7300 C.3    91  GLN91       0.1566
     91  C         25.7780   -0.5310  -14.2210 C.2    91  GLN91       0.2260
     92  O         24.8580    0.0300  -14.8280 O.2    91  GLN91      -0.2867
     93  CB        27.2470   -1.5690  -15.9410 C.3    91  GLN91       0.0367
     94  CG        28.3390   -0.5530  -15.6420 C.3    91  GLN91       0.0905
     95  CD        29.3200   -0.3720  -16.7800 C.2    91  GLN91       0.2608
     96  OE1       28.9420   -0.0180  -17.9010 O.2    91  GLN91      -0.2717
     97  NE2       30.6020   -0.5990  -16.4880 N.am   91  GLN91      -0.0878
     98  N         31.6680    1.8410  -13.1010 N.3    96  ILE96      -0.1245
     99  CA        32.5050    2.6210  -14.0130 C.3    96  ILE96       0.1561
    100  C         33.6480    3.3450  -13.2860 C.2    96  ILE96       0.2260
    101  O         34.7720    3.3960  -13.8020 O.2    96  ILE96      -0.2867
    102  CB        31.6700    3.6290  -14.8270 C.3    96  ILE96       0.0252
    103  CG1       30.5580    2.9180  -15.6040 C.3    96  ILE96       0.0019
    104  CG2       32.5610    4.4170  -15.7610 C.3    96  ILE96       0.0019
    105  CD1       29.6960    3.8570  -16.4430 C.3    96  ILE96       0.0001
    106  N         36.2030    0.7980  -12.6190 N.3    99  GLU99      -0.1231
    107  CA        36.8130    0.4640  -13.8710 C.3    99  GLU99       0.1699
    108  C         37.8230    1.5220  -14.2720 C.2    99  GLU99       0.2592
    109  O         38.8400    1.2110  -14.8800 O.2    99  GLU99      -0.2718
    110  CB        35.7470    0.3110  -14.9560 C.3    99  GLU99       0.0402
    111  CG        35.0590   -1.0280  -14.9080 C.3    99  GLU99       0.1161
    112  CD        33.6960   -0.9890  -15.5440 C.2    99  GLU99       0.3649
    113  OE1       32.7170   -0.8200  -14.7930 O.co2  99  GLU99      -0.2457
    114  OE2       33.5910   -1.1120  -16.7810 O.co2  99  GLU99      -0.2457
    115  N         37.5490    2.7690  -13.9220 N.am  100  ARG100     -0.1980
    116  CA        38.4340    3.8590  -14.2800 C.3   100  ARG100      0.1597
    117  C         39.4810    4.1520  -13.2200 C.2   100  ARG100      0.2287
    118  O         40.2670    5.0800  -13.3880 O.2   100  ARG100     -0.2864
    119  CB        37.6300    5.1280  -14.5860 C.3   100  ARG100      0.0334
    120  CG        36.7100    4.9920  -15.7920 C.3   100  ARG100      0.0492
    121  CD        37.4810    4.9040  -17.1460 C.3   100  ARG100      0.2205
    122  NE        36.5440    4.8010  -18.2660 N.pl3 100  ARG100     -0.0865
    123  CZ        35.9950    3.6650  -18.7170 C.cat 100  ARG100      0.5346
    124  NH1       36.3040    2.4760  -18.1840 N.pl3 100  ARG100      0.1354
    125  NH2       35.1280    3.7280  -19.7210 N.pl3 100  ARG100      0.1354
    126  N         29.3890   -8.1620  -21.1730 N.3   123  PHE123     -0.1241
    127  CA        30.6270   -7.4050  -21.1190 C.3   123  PHE123      0.1605
    128  C         31.4430   -7.7700  -19.8830 C.2   123  PHE123      0.2264
    129  O         32.6240   -7.4720  -19.8110 O.2   123  PHE123     -0.2867
    130  CB        30.3500   -5.8930  -21.1650 C.3   123  PHE123      0.0534
    131  CG        31.5820   -5.0670  -20.9820 C.ar  123  PHE123     -0.0203
    132  CD1       31.7750   -4.3460  -19.8250 C.ar  123  PHE123     -0.0042
    133  CD2       32.5790   -5.0760  -21.9370 C.ar  123  PHE123     -0.0042
    134  CE1       32.9320   -3.6280  -19.6330 C.ar  123  PHE123     -0.0003
    135  CE2       33.7380   -4.3500  -21.7700 C.ar  123  PHE123     -0.0003
    136  CZ        33.9220   -3.6210  -20.6220 C.ar  123  PHE123     -0.0000
@<TRIPOS>BOND
     1     8     7    1
     2     8     9    2
     3     6     7    1
     4     6     5    1
     5    11     9    1
     6     9    10    1
     7     5     2    1
     8    29    28   ar
     9     2     3    1
    10     2     1    1
    11    30    28   ar
    12    48    47    1
    13     3     4    2
    14    28    27    1
    15    27    24    1
    16    47    46    1
    17    39    38    1
    18    88    87    1
    19    63    62    2
    20    24    25    1
    21    24    23    1
    22    16    13    1
    23    16    17    1
    24    25    26    2
    25    14    15    2
    26    14    13    1
    27    86    87   ar
    28    86    84   ar
    29    18    17   ar
    30    18    20   ar
    31    46    45    1
    32    87    85   ar
    33    38    37    1
    34    13    12    1
    35    17    19   ar
    36    62    64   am
    37    62    61    1
    38    84    82   ar
    39    20    22   ar
    40   133   135   ar
    41   133   131   ar
    42    85    83   ar
    43   135   136   ar
    44    45    44    1
    45    37    36    1
    46    19    21   ar
    47    61    58    1
    48    77    78    1
    49    82    83   ar
    50    82    81    1
    51   126   127    1
    52   130   127    1
    53   130   131    1
    54    22    21   ar
    55   127   128    1
    56    52    51    2
    57    53    54    1
    58    53    50    1
    59   131   132   ar
    60    74    72   ar
    61    74    75   ar
    62    35    36    1
    63    35    32    1
    64    54    55    1
    65    54    56    1
    66    58    57    1
    67    58    59    1
    68   136   134   ar
    69    44    41    1
    70    51    57   am
    71    51    50    1
    72    76    75    1
    73    72    70   ar
    74    81    78    1
    75    78    79    1
    76    31    32    1
    77    75    73   ar
    78    50    49    1
    79    43    42    2
    80   128   129    2
    81    41    42    1
    82    41    40    1
    83   132   134   ar
    84    34    33    2
    85   125   123    1
    86    59    60    2
    87    32    33    1
    88    70    69    1
    89    70    71   ar
    90    79    80    2
    91   123   122    2
    92   123   124    1
    93    73    71   ar
    94    69    66    1
    95   122   121    1
    96    67    66    1
    97    67    68    2
    98    96    95    2
    99    66    65    1
   100   121   120    1
   101   114   112   ar
   102    95    97   am
   103    95    94    1
   104   105   103    1
   105    93    94    1
   106    93    90    1
   107   120   119    1
   108   104   102    1
   109   103   102    1
   110   112   111    1
   111   112   113   ar
   112    89    90    1
   113   110   111    1
   114   110   107    1
   115   109   108    2
   116    92    91    2
   117   102    99    1
   118    90    91    1
   119   119   116    1
   120   116   115    1
   121   116   117    1
   122   108   115   am
   123   108   107    1
   124    99   100    1
   125    99    98    1
   126   107   106    1
   127   101   100    2
   128   118   117    2
