@<TRIPOS>MOLECULE
tmp/2pnoA03.pdb
 77 72 0 0 0
SMALL
GASTEIGER

@<TRIPOS>ATOM
      1  N        -11.8820  -83.5690  -19.3670 N.3    15  VAL15      -0.1231
      2  CA       -10.9950  -84.6540  -18.9730 C.3    15  VAL15       0.1692
      3  C        -10.5180  -84.4770  -17.5350 C.2    15  VAL15       0.2591
      4  O        -10.5040  -85.4300  -16.7590 O.2    15  VAL15      -0.2718
      5  CB        -9.7900  -84.7800  -19.9260 C.3    15  VAL15       0.0266
      6  CG1       -8.7180  -85.6870  -19.3390 C.3    15  VAL15       0.0020
      7  CG2      -10.2430  -85.3050  -21.2610 C.3    15  VAL15       0.0020
      8  N        -10.1490  -83.2540  -17.1740 N.am   16  LEU16      -0.1980
      9  CA        -9.7090  -82.9720  -15.8110 C.3    16  LEU16       0.1596
     10  C        -10.8220  -83.2270  -14.8030 C.2    16  LEU16       0.2287
     11  O        -10.5840  -83.7880  -13.7410 O.2    16  LEU16      -0.2864
     12  CB        -9.1830  -81.5400  -15.6970 C.3    16  LEU16       0.0297
     13  CG        -7.7360  -81.3550  -16.1570 C.3    16  LEU16       0.0022
     14  CD1       -7.4120  -79.8900  -16.3230 C.3    16  LEU16       0.0001
     15  CD2       -6.7700  -82.0210  -15.1840 C.3    16  LEU16       0.0001
     16  N        -11.1110  -86.9190  -14.3760 N.3    19  ALA19      -0.1245
     17  CA        -9.9900  -87.3370  -13.5370 C.3    19  ALA19       0.1562
     18  C        -10.2520  -87.0300  -12.0650 C.2    19  ALA19       0.2260
     19  O         -9.8620  -87.7980  -11.1900 O.2    19  ALA19      -0.2867
     20  CB        -8.7040  -86.6700  -13.9910 C.3    19  ALA19       0.0290
     21  N        -12.9270  -89.6090  -10.7750 N.3    22  SER22      -0.1202
     22  CA       -12.3450  -90.9130  -10.4990 C.3    22  SER22       0.2020
     23  C        -11.3840  -90.8940   -9.3150 C.2    22  SER22       0.2618
     24  O        -11.2450  -91.8910   -8.6200 O.2    22  SER22      -0.2717
     25  CB       -11.6970  -91.5190  -11.7420 C.3    22  SER22       0.2103
     26  OG       -11.2190  -90.5080  -12.5940 O.3    22  SER22      -0.2182
     27  N        -10.7380  -89.7620   -9.0680 N.am   23  LEU23      -0.1979
     28  CA        -9.9160  -89.6290   -7.8710 C.3    23  LEU23       0.1596
     29  C        -10.7850  -89.6980   -6.6200 C.2    23  LEU23       0.2287
     30  O        -10.3810  -90.2540   -5.6020 O.2    23  LEU23      -0.2864
     31  CB        -9.1170  -88.3250   -7.8930 C.3    23  LEU23       0.0297
     32  CG        -7.8840  -88.2850   -8.8010 C.3    23  LEU23       0.0022
     33  CD1       -7.2370  -86.9090   -8.7720 C.3    23  LEU23       0.0001
     34  CD2       -6.8700  -89.3590   -8.4320 C.3    23  LEU23       0.0001
     35  N        -11.6170  -93.2500   -5.8350 N.3    26  ILE26      -0.1245
     36  CA       -10.4590  -93.8860   -5.2210 C.3    26  ILE26       0.1561
     37  C        -10.3800  -93.5100   -3.7440 C.2    26  ILE26       0.2260
     38  O        -10.0620  -94.3470   -2.8990 O.2    26  ILE26      -0.2867
     39  CB        -9.1470  -93.5330   -5.9540 C.3    26  ILE26       0.0252
     40  CG1       -9.1440  -94.1500   -7.3490 C.3    26  ILE26       0.0019
     41  CG2       -7.9390  -94.0400   -5.1830 C.3    26  ILE26       0.0019
     42  CD1       -8.0640  -93.6160   -8.2430 C.3    26  ILE26       0.0001
     43  N        -13.0940  -95.0950   -1.7410 N.3    29  ARG29      -0.1231
     44  CA       -12.7650  -96.5090   -1.6120 C.3    29  ARG29       0.1694
     45  C        -11.9850  -96.7610   -0.3310 C.2    29  ARG29       0.2591
     46  O        -12.2610  -97.7230    0.3820 O.2    29  ARG29      -0.2718
     47  CB       -11.9700  -97.0130   -2.8250 C.3    29  ARG29       0.0321
     48  CG       -12.8350  -97.5410   -3.9550 C.3    29  ARG29       0.0489
     49  CD       -12.0690  -98.4910   -4.8660 C.3    29  ARG29       0.2205
     50  NE       -12.8460  -99.7030   -5.1200 N.pl3  29  ARG29      -0.0865
     51  CZ       -13.7650  -99.8220   -6.0710 C.cat  29  ARG29       0.5346
     52  NH1      -14.0230  -98.8130   -6.8820 N.pl3  29  ARG29       0.1354
     53  NH2      -14.4250 -100.9550   -6.2150 N.pl3  29  ARG29       0.1354
     54  N        -11.0090  -95.8970   -0.0520 N.am   30  ARG30      -0.1980
     55  CA       -10.2260  -95.9810    1.1790 C.3    30  ARG30       0.1597
     56  C        -11.1050  -95.6360    2.3670 C.2    30  ARG30       0.2287
     57  O        -11.1510  -96.3760    3.3520 O.2    30  ARG30      -0.2864
     58  CB        -9.0260  -95.0320    1.1360 C.3    30  ARG30       0.0334
     59  CG        -7.9030  -95.4360    0.2190 C.3    30  ARG30       0.0492
     60  CD        -6.6510  -94.6380    0.5450 C.3    30  ARG30       0.2205
     61  NE        -6.8990  -93.1950    0.5700 N.pl3  30  ARG30      -0.0865
     62  CZ        -6.9760  -92.4210   -0.5130 C.cat  30  ARG30       0.5346
     63  NH1       -6.8200  -92.9470   -1.7200 N.pl3  30  ARG30       0.1354
     64  NH2       -7.2120  -91.1190   -0.3920 N.pl3  30  ARG30       0.1354
     65  N        -12.9470 -102.8480   -1.1670 N.3    35  SER35      -0.1203
     66  CA       -11.8630 -103.4240   -1.9560 C.3    35  SER35       0.2005
     67  C        -12.1650 -103.4680   -3.4480 C.2    35  SER35       0.2460
     68  O        -13.2830 -103.7780   -3.8420 O.2    35  SER35      -0.2732
     69  CB       -11.5150 -104.8160   -1.4460 C.3    35  SER35       0.2103
     70  OG       -10.6120 -104.7130   -0.3630 O.3    35  SER35      -0.2182
     71  N        -11.1450 -103.1790   -4.2780 N.am   36  PRO36      -0.2728
     72  CA       -11.1880 -102.9830   -5.7290 C.3    36  PRO36       0.1401
     73  C        -12.0620 -103.9110   -6.5840 C.2    36  PRO36       0.2269
     74  O        -12.6880 -103.4120   -7.5220 O.2    36  PRO36      -0.2865
     75  CB        -9.7150 -103.0890   -6.1550 C.3    36  PRO36       0.0296
     76  CG        -8.9560 -103.5150   -4.9230 C.3    36  PRO36       0.0237
     77  CD        -9.7730 -103.0210   -3.7740 C.3    36  PRO36       0.0939
@<TRIPOS>BOND
     1     7     5    1
     2     5     6    1
     3     5     2    1
     4     1     2    1
     5     2     3    1
     6     3     8   am
     7     3     4    2
     8     8     9    1
     9    14    13    1
    10    13    12    1
    11    13    15    1
    12     9    12    1
    13     9    10    1
    14    10    11    2
    15    16    17    1
    16    20    17    1
    17    17    18    1
    18    26    25    1
    19    18    19    2
    20    25    22    1
    21    21    22    1
    22    22    23    1
    23    23    27   am
    24    23    24    2
    25    27    28    1
    26    32    33    1
    27    32    34    1
    28    32    31    1
    29    42    40    1
    30    31    28    1
    31    28    29    1
    32    74    73    2
    33    40    39    1
    34    52    51    1
    35    29    30    2
    36    73    72    1
    37    53    51    1
    38    75    72    1
    39    75    76    1
    40    51    50    2
    41    39    36    1
    42    39    41    1
    43    35    36    1
    44    72    71    1
    45    36    37    1
    46    50    49    1
    47    76    77    1
    48    49    48    1
    49    71    77    1
    50    71    67   am
    51    48    47    1
    52    68    67    2
    53    37    38    2
    54    67    66    1
    55    47    44    1
    56    66    69    1
    57    66    65    1
    58    43    44    1
    59    63    62    1
    60    44    45    1
    61    69    70    1
    62    62    64    1
    63    62    61    2
    64    45    54   am
    65    45    46    2
    66    54    55    1
    67    59    60    1
    68    59    58    1
    69    60    61    1
    70    58    55    1
    71    55    56    1
    72    56    57    2
