@<TRIPOS>MOLECULE
tmp/2pnoE00.pdb
 97 90 0 0 0
SMALL
GASTEIGER

@<TRIPOS>ATOM
      1  N         22.1130  -66.0130  -26.5930 N.3    13  LEU13      -0.1245
      2  CA        23.2150  -66.2890  -25.6840 C.3    13  LEU13       0.1561
      3  C         24.1840  -65.1200  -25.6830 C.2    13  LEU13       0.2260
      4  O         24.6230  -64.6620  -24.6260 O.2    13  LEU13      -0.2867
      5  CB        23.9560  -67.5510  -26.1090 C.3    13  LEU13       0.0270
      6  CG        24.8690  -68.1270  -25.0330 C.3    13  LEU13       0.0019
      7  CD1       24.0310  -68.7180  -23.8960 C.3    13  LEU13       0.0001
      8  CD2       25.8020  -69.1690  -25.6340 C.3    13  LEU13       0.0001
      9  N         22.8480  -62.2480  -23.7710 N.3    16  LEU16      -0.1231
     10  CA        22.9830  -62.4830  -22.3340 C.3    16  LEU16       0.1693
     11  C         24.3980  -62.1910  -21.8620 C.2    16  LEU16       0.2591
     12  O         24.5970  -61.5660  -20.8230 O.2    16  LEU16      -0.2718
     13  CB        22.5980  -63.9230  -21.9800 C.3    16  LEU16       0.0284
     14  CG        21.1170  -64.2920  -22.0860 C.3    16  LEU16       0.0019
     15  CD1       20.9320  -65.8050  -22.0640 C.3    16  LEU16       0.0001
     16  CD2       20.3110  -63.6080  -20.9830 C.3    16  LEU16       0.0001
     17  N         25.3740  -62.6430  -22.6400 N.am   17  LEU17      -0.1980
     18  CA        26.7780  -62.3910  -22.3520 C.3    17  LEU17       0.1596
     19  C         27.0800  -60.8930  -22.2600 C.2    17  LEU17       0.2287
     20  O         27.7700  -60.4370  -21.3540 O.2    17  LEU17      -0.2864
     21  CB        27.6320  -63.0290  -23.4340 C.3    17  LEU17       0.0297
     22  CG        29.1230  -63.0020  -23.1710 C.3    17  LEU17       0.0022
     23  CD1       29.4180  -63.5390  -21.7830 C.3    17  LEU17       0.0001
     24  CD2       29.8110  -63.8190  -24.2320 C.3    17  LEU17       0.0001
     25  N         24.8650  -58.5750  -21.6850 N.3    19  ALA19      -0.1231
     26  CA        24.1620  -58.0900  -20.5030 C.3    19  ALA19       0.1694
     27  C         25.0050  -58.3530  -19.2560 C.2    19  ALA19       0.2592
     28  O         25.0140  -57.5520  -18.3200 O.2    19  ALA19      -0.2718
     29  CB        22.7910  -58.7420  -20.3780 C.3    19  ALA19       0.0304
     30  N         25.7250  -59.4710  -19.2600 N.am   20  TYR20      -0.1976
     31  CA        26.6110  -59.8100  -18.1600 C.3    20  TYR20       0.1639
     32  C         27.7410  -58.7960  -18.0620 C.2    20  TYR20       0.2290
     33  O         27.9170  -58.1780  -17.0170 O.2    20  TYR20      -0.2864
     34  CB        27.1590  -61.2250  -18.3320 C.3    20  TYR20       0.0560
     35  CG        28.3070  -61.5810  -17.4130 C.ar   20  TYR20      -0.0198
     36  CD1       28.0930  -61.8370  -16.0620 C.ar   20  TYR20      -0.0009
     37  CD2       29.6050  -61.6820  -17.9040 C.ar   20  TYR20      -0.0009
     38  CE1       29.1440  -62.1710  -15.2250 C.ar   20  TYR20       0.0417
     39  CE2       30.6570  -62.0190  -17.0770 C.ar   20  TYR20       0.0417
     40  CZ        30.4230  -62.2630  -15.7390 C.ar   20  TYR20       0.1957
     41  OH        31.4800  -62.5950  -14.9200 O.3    20  TYR20      -0.2866
     42  N         26.5870  -55.5830  -16.7080 N.3    23  LEU23      -0.1231
     43  CA        26.3410  -55.6160  -15.2710 C.3    23  LEU23       0.1693
     44  C         27.6520  -55.5800  -14.5020 C.2    23  LEU23       0.2591
     45  O         27.7240  -54.9980  -13.4260 O.2    23  LEU23      -0.2718
     46  CB        25.5370  -56.8590  -14.8760 C.3    23  LEU23       0.0284
     47  CG        24.0660  -56.9730  -15.2990 C.3    23  LEU23       0.0019
     48  CD1       23.5450  -58.3840  -15.0630 C.3    23  LEU23       0.0001
     49  CD2       23.1810  -55.9480  -14.5940 C.3    23  LEU23       0.0001
     50  N         28.6850  -56.1990  -15.0630 N.am   24  GLN24      -0.1979
     51  CA        30.0060  -56.1870  -14.4620 C.3    24  GLN24       0.1601
     52  C         30.5680  -54.7800  -14.3590 C.2    24  GLN24       0.2287
     53  O         31.2050  -54.4350  -13.3690 O.2    24  GLN24      -0.2864
     54  CB        30.9620  -57.0670  -15.2560 C.3    24  GLN24       0.0394
     55  CG        30.7080  -58.5350  -15.0890 C.3    24  GLN24       0.0908
     56  CD        30.7040  -58.9420  -13.6390 C.2    24  GLN24       0.2608
     57  OE1       31.7240  -59.3710  -13.1080 O.2    24  GLN24      -0.2717
     58  NE2       29.5630  -58.7910  -12.9800 N.am   24  GLN24      -0.0878
     59  N         28.7900  -52.9870  -11.6540 N.3    27  SER27      -0.1217
     60  CA        29.3710  -53.4760  -10.4130 C.3    27  SER27       0.1889
     61  C         30.7230  -52.8280  -10.1080 C.2    27  SER27       0.2288
     62  O         30.9170  -52.2920   -9.0220 O.2    27  SER27      -0.2866
     63  CB        29.4970  -54.9980  -10.4570 C.3    27  SER27       0.2089
     64  OG        30.5980  -55.4390   -9.6850 O.3    27  SER27      -0.2183
     65  N         34.1700  -64.0870  -23.4860 N.3    90  LEU90      -0.1245
     66  CA        34.0350  -64.1270  -22.0360 C.3    90  LEU90       0.1561
     67  C         35.4120  -64.1880  -21.3970 C.2    90  LEU90       0.2260
     68  O         35.6850  -63.4800  -20.4310 O.2    90  LEU90      -0.2867
     69  CB        33.2090  -65.3350  -21.5960 C.3    90  LEU90       0.0270
     70  CG        33.1140  -65.5570  -20.0880 C.3    90  LEU90       0.0019
     71  CD1       32.2270  -64.5120  -19.4530 C.3    90  LEU90       0.0001
     72  CD2       32.5910  -66.9290  -19.7920 C.3    90  LEU90       0.0001
     73  N         37.4590  -61.3860  -18.9800 N.3    94  GLN94      -0.1245
     74  CA        38.0030  -61.6990  -17.6690 C.3    94  GLN94       0.1566
     75  C         39.5050  -61.5130  -17.6050 C.2    94  GLN94       0.2260
     76  O         40.0230  -61.0180  -16.6130 O.2    94  GLN94      -0.2867
     77  CB        37.6190  -63.1110  -17.2490 C.3    94  GLN94       0.0367
     78  CG        36.2090  -63.1870  -16.7240 C.3    94  GLN94       0.0905
     79  CD        35.6990  -64.5990  -16.6320 C.2    94  GLN94       0.2608
     80  OE1       36.2710  -65.5270  -17.2100 O.2    94  GLN94      -0.2717
     81  NE2       34.6080  -64.7720  -15.9030 N.am   94  GLN94      -0.0878
     82  N         40.1920  -57.8340  -17.5050 N.3    97  ALA97      -0.1231
     83  CA        39.8260  -57.3130  -16.1960 C.3    97  ALA97       0.1694
     84  C         40.9340  -57.5270  -15.1700 C.2    97  ALA97       0.2591
     85  O         41.1130  -56.7040  -14.2790 O.2    97  ALA97      -0.2718
     86  CB        38.5170  -57.9240  -15.7180 C.3    97  ALA97       0.0304
     87  N         41.6720  -58.6280  -15.2970 N.am   98  ARG98      -0.1980
     88  CA        42.8680  -58.8550  -14.4870 C.3    98  ARG98       0.1597
     89  C         44.0110  -57.9390  -14.9250 C.2    98  ARG98       0.2287
     90  O         44.3410  -56.9760  -14.2410 O.2    98  ARG98      -0.2864
     91  CB        43.2990  -60.3200  -14.5590 C.3    98  ARG98       0.0334
     92  CG        42.5330  -61.2000  -13.6000 C.3    98  ARG98       0.0492
     93  CD        42.4880  -62.6470  -14.0520 C.3    98  ARG98       0.2205
     94  NE        41.2070  -63.2490  -13.6820 N.pl3  98  ARG98      -0.0865
     95  CZ        40.6840  -64.3260  -14.2590 C.cat  98  ARG98       0.5346
     96  NH1       41.3360  -64.9380  -15.2400 N.pl3  98  ARG98       0.1354
     97  NH2       39.5060  -64.7880  -13.8570 N.pl3  98  ARG98       0.1354
@<TRIPOS>BOND
     1     1     2    1
     2     5     2    1
     3     5     6    1
     4     2     3    1
     5     3     4    2
     6     8     6    1
     7     6     7    1
     8    24    22    1
     9     9    10    1
    10    65    66    1
    11    21    22    1
    12    21    18    1
    13    22    23    1
    14    17    18    1
    15    17    11   am
    16    18    19    1
    17    10    13    1
    18    10    11    1
    19    19    20    2
    20    14    15    1
    21    14    13    1
    22    14    16    1
    23    66    69    1
    24    66    67    1
    25    11    12    2
    26    25    26    1
    27    69    70    1
    28    67    68    2
    29    26    29    1
    30    26    27    1
    31    70    72    1
    32    70    71    1
    33    30    27   am
    34    30    31    1
    35    27    28    2
    36    73    74    1
    37    34    31    1
    38    34    35    1
    39    31    32    1
    40    32    33    2
    41    37    35   ar
    42    37    39   ar
    43    74    75    1
    44    74    77    1
    45    75    76    2
    46    82    83    1
    47    35    36   ar
    48    77    78    1
    49    80    79    2
    50    39    40   ar
    51    78    79    1
    52    42    43    1
    53    79    81   am
    54    83    86    1
    55    83    84    1
    56    36    38   ar
    57    40    38   ar
    58    40    41    1
    59    47    48    1
    60    47    46    1
    61    47    49    1
    62    87    84   am
    63    87    88    1
    64    43    46    1
    65    43    44    1
    66    54    55    1
    67    54    51    1
    68    96    95    1
    69    84    85    2
    70    55    56    1
    71    50    44   am
    72    50    51    1
    73    89    88    1
    74    89    90    2
    75    91    88    1
    76    91    92    1
    77    44    45    2
    78    51    52    1
    79    52    53    2
    80    95    97    1
    81    95    94    2
    82    93    94    1
    83    93    92    1
    84    56    57    2
    85    56    58   am
    86    59    60    1
    87    63    60    1
    88    63    64    1
    89    60    61    1
    90    61    62    2
