@<TRIPOS>MOLECULE
tmp/2pnoB03.pdb
 96 93 0 0 0
SMALL
GASTEIGER

@<TRIPOS>ATOM
      1  N        -19.0790  -99.4680  -25.7710 N.3    58  TYR58      -0.1241
      2  CA       -18.5660  -99.6920  -27.1170 C.3    58  TYR58       0.1605
      3  C        -18.6210  -98.4170  -27.9460 C.2    58  TYR58       0.2264
      4  O        -17.9050  -98.2770  -28.9340 O.2    58  TYR58      -0.2867
      5  CB       -19.3460 -100.8040  -27.8160 C.3    58  TYR58       0.0534
      6  CG       -18.8620 -102.1980  -27.4890 C.ar   58  TYR58      -0.0201
      7  CD1      -19.5140 -102.9750  -26.5500 C.ar   58  TYR58      -0.0009
      8  CD2      -17.7510 -102.7350  -28.1250 C.ar   58  TYR58      -0.0009
      9  CE1      -19.0770 -104.2430  -26.2530 C.ar   58  TYR58       0.0417
     10  CE2      -17.3070 -104.0040  -27.8330 C.ar   58  TYR58       0.0417
     11  CZ       -17.9740 -104.7540  -26.8960 C.ar   58  TYR58       0.1957
     12  OH       -17.5370 -106.0240  -26.6000 O.3    58  TYR58      -0.2866
     13  N        -15.5310  -96.7730  -28.9700 N.3    61  LEU61      -0.1245
     14  CA       -14.8700  -97.5940  -29.9780 C.3    61  LEU61       0.1561
     15  C        -15.4420  -97.2870  -31.3520 C.2    61  LEU61       0.2260
     16  O        -14.7070  -97.1340  -32.3210 O.2    61  LEU61      -0.2867
     17  CB       -15.0340  -99.0830  -29.6760 C.3    61  LEU61       0.0270
     18  CG       -14.3940  -99.6370  -28.4110 C.3    61  LEU61       0.0019
     19  CD1      -14.2340 -101.1300  -28.5370 C.3    61  LEU61       0.0001
     20  CD2      -13.0650  -98.9920  -28.1960 C.3    61  LEU61       0.0001
     21  N        -27.0620 -101.9150  -33.2480 N.3    89  ARG89      -0.1245
     22  CA       -27.0540 -101.6560  -31.8130 C.3    89  ARG89       0.1563
     23  C        -28.4550 -101.4320  -31.2650 C.2    89  ARG89       0.2260
     24  O        -28.7840 -101.9220  -30.1880 O.2    89  ARG89      -0.2867
     25  CB       -26.1410 -100.4810  -31.4700 C.3    89  ARG89       0.0307
     26  CG       -24.7120 -100.8970  -31.1930 C.3    89  ARG89       0.0489
     27  CD       -24.6160 -101.6730  -29.8950 C.3    89  ARG89       0.2205
     28  NE       -23.4130 -102.4930  -29.8270 N.pl3  89  ARG89      -0.0865
     29  CZ       -22.9490 -103.0500  -28.7150 C.cat  89  ARG89       0.5346
     30  NH1      -23.5750 -102.8770  -27.5600 N.pl3  89  ARG89       0.1354
     31  NH2      -21.8460 -103.7780  -28.7560 N.pl3  89  ARG89       0.1354
     32  N        -25.8590 -108.5090  -31.6870 N.3   107  LEU107     -0.1231
     33  CA       -24.5070 -108.2460  -31.1980 C.3   107  LEU107      0.1693
     34  C        -23.5000 -108.6180  -32.2620 C.2   107  LEU107      0.2592
     35  O        -22.5850 -107.8540  -32.5460 O.2   107  LEU107     -0.2718
     36  CB       -24.2000 -109.0180  -29.9130 C.3   107  LEU107      0.0284
     37  CG       -22.7610 -108.8910  -29.3930 C.3   107  LEU107      0.0019
     38  CD1      -22.5040 -107.5010  -28.8530 C.3   107  LEU107      0.0001
     39  CD2      -22.4430 -109.9290  -28.3340 C.3   107  LEU107      0.0001
     40  N        -23.6810 -109.7950  -32.8530 N.am  108  TYR108     -0.1976
     41  CA       -22.7990 -110.2660  -33.9140 C.3   108  TYR108      0.1639
     42  C        -22.8690 -109.3440  -35.1210 C.2   108  TYR108      0.2290
     43  O        -21.8430 -108.9720  -35.6800 O.2   108  TYR108     -0.2864
     44  CB       -23.1320 -111.7050  -34.3130 C.3   108  TYR108      0.0560
     45  CG       -23.0020 -112.6930  -33.1720 C.ar  108  TYR108     -0.0198
     46  CD1      -23.9130 -113.7370  -33.0140 C.ar  108  TYR108     -0.0009
     47  CD2      -21.9740 -112.5740  -32.2440 C.ar  108  TYR108     -0.0009
     48  CE1      -23.7940 -114.6360  -31.9690 C.ar  108  TYR108      0.0417
     49  CE2      -21.8530 -113.4620  -31.1980 C.ar  108  TYR108      0.0417
     50  CZ       -22.7570 -114.4890  -31.0640 C.ar  108  TYR108      0.1957
     51  OH       -22.6130 -115.3640  -30.0120 O.3   108  TYR108     -0.2866
     52  N        -20.9480 -106.4320  -34.2340 N.3   111  ALA111     -0.1231
     53  CA       -19.5400 -106.8020  -34.1880 C.3   111  ALA111      0.1694
     54  C        -18.9270 -106.8090  -35.5860 C.2   111  ALA111      0.2591
     55  O        -17.8020 -106.3490  -35.7700 O.2   111  ALA111     -0.2718
     56  CB       -19.3590 -108.1540  -33.5160 C.3   111  ALA111      0.0304
     57  N        -19.6710 -107.3250  -36.5650 N.am  112  ARG112     -0.1980
     58  CA       -19.2160 -107.3330  -37.9590 C.3   112  ARG112      0.1597
     59  C        -18.9970 -105.9160  -38.4490 C.2   112  ARG112      0.2287
     60  O        -17.9130 -105.5750  -38.9010 O.2   112  ARG112     -0.2864
     61  CB       -20.2300 -108.0070  -38.8850 C.3   112  ARG112      0.0334
     62  CG       -20.3680 -109.5040  -38.7270 C.3   112  ARG112      0.0492
     63  CD       -21.5460 -110.0360  -39.5620 C.3   112  ARG112      0.2205
     64  NE       -22.3290 -111.0130  -38.8050 N.pl3 112  ARG112     -0.0865
     65  CZ       -21.9420 -112.2660  -38.5670 C.cat 112  ARG112      0.5346
     66  NH1      -20.7840 -112.7090  -39.0410 N.pl3 112  ARG112      0.1354
     67  NH2      -22.7150 -113.0820  -37.8570 N.pl3 112  ARG112      0.1354
     68  N        -18.5880 -103.2180  -36.8650 N.3   114  LEU114     -0.1231
     69  CA       -17.4950 -102.5850  -36.1510 C.3   114  LEU114      0.1693
     70  C        -16.1460 -103.1020  -36.6320 C.2   114  LEU114      0.2592
     71  O        -15.2220 -102.3220  -36.8030 O.2   114  LEU114     -0.2718
     72  CB       -17.6350 -102.7770  -34.6370 C.3   114  LEU114      0.0284
     73  CG       -16.8720 -101.7440  -33.8060 C.3   114  LEU114      0.0019
     74  CD1      -17.5230 -100.3880  -33.9710 C.3   114  LEU114      0.0001
     75  CD2      -16.8000 -102.1170  -32.3410 C.3   114  LEU114      0.0001
     76  N        -16.0300 -104.4100  -36.8530 N.am  115  TRP115     -0.1976
     77  CA       -14.7720 -104.9860  -37.3430 C.3   115  TRP115      0.1640
     78  C        -14.4640 -104.5020  -38.7530 C.2   115  TRP115      0.2290
     79  O        -13.3100 -104.2610  -39.0960 O.2   115  TRP115     -0.2864
     80  CB       -14.7970 -106.5180  -37.3180 C.3   115  TRP115      0.0576
     81  CG       -14.4360 -107.1430  -35.9880 C.ar  115  TRP115      0.0006
     82  CD1      -15.2630 -107.8610  -35.1660 C.ar  115  TRP115      0.0946
     83  CD2      -13.1550 -107.1230  -35.3410 C.ar  115  TRP115      0.0152
     84  NE1      -14.5790 -108.2840  -34.0500 N.ar  115  TRP115     -0.2442
     85  CE2      -13.2850 -107.8440  -34.1320 C.ar  115  TRP115      0.0810
     86  CE3      -11.9130 -106.5690  -35.6650 C.ar  115  TRP115      0.0012
     87  CZ2      -12.2200 -108.0190  -33.2460 C.ar  115  TRP115      0.0191
     88  CZ3      -10.8540 -106.7450  -34.7810 C.ar  115  TRP115      0.0001
     89  CH2      -11.0170 -107.4630  -33.5870 C.ar  115  TRP115      0.0015
     90  N        -12.9930 -101.1780  -38.4680 N.3   118  VAL118     -0.1245
     91  CA       -11.6170 -101.3380  -38.0190 C.3   118  VAL118      0.1561
     92  C        -10.7550 -101.7580  -39.1960 C.2   118  VAL118      0.2260
     93  O         -9.6630 -101.2290  -39.3870 O.2   118  VAL118     -0.2867
     94  CB       -11.4990 -102.3480  -36.8670 C.3   118  VAL118      0.0252
     95  CG1      -10.0590 -102.7510  -36.6520 C.3   118  VAL118      0.0019
     96  CG2      -12.0520 -101.7500  -35.6030 C.3   118  VAL118      0.0019
@<TRIPOS>BOND
     1    63    64    1
     2    63    62    1
     3    93    92    2
     4    92    91    1
     5    79    78    2
     6    66    65    1
     7    60    59    2
     8    61    62    1
     9    61    58    1
    10    64    65    2
    11    78    77    1
    12    65    67    1
    13    90    91    1
    14    59    58    1
    15    91    94    1
    16    58    57    1
    17    77    80    1
    18    77    76    1
    19    80    81    1
    20    94    95    1
    21    94    96    1
    22    68    69    1
    23    76    70   am
    24    71    70    2
    25    70    69    1
    26    57    54   am
    27    69    72    1
    28    81    83   ar
    29    81    82   ar
    30    55    54    2
    31    43    42    2
    32    86    83   ar
    33    86    88   ar
    34    54    53    1
    35    83    85   ar
    36    82    84   ar
    37    42    41    1
    38    88    89   ar
    39    72    73    1
    40    44    41    1
    41    44    45    1
    42    52    53    1
    43    53    56    1
    44    85    84   ar
    45    85    87   ar
    46    74    73    1
    47    41    40    1
    48    73    75    1
    49    89    87   ar
    50    21    22    1
    51    45    46   ar
    52    45    47   ar
    53    46    48   ar
    54    40    34   am
    55    35    34    2
    56    16    15    2
    57    34    33    1
    58    47    49   ar
    59    48    50   ar
    60    22    25    1
    61    22    23    1
    62    32    33    1
    63    25    26    1
    64    15    14    1
    65    23    24    2
    66    49    50   ar
    67    33    36    1
    68    26    27    1
    69    50    51    1
    70    14    17    1
    71    14    13    1
    72    36    37    1
    73    27    28    1
    74    28    29    2
    75    17    18    1
    76    37    38    1
    77    37    39    1
    78     4     3    2
    79    31    29    1
    80    29    30    1
    81    19    18    1
    82    18    20    1
    83     8    10   ar
    84     8     6   ar
    85     3     2    1
    86    10    11   ar
    87     5     6    1
    88     5     2    1
    89     6     7   ar
    90     2     1    1
    91    11    12    1
    92    11     9   ar
    93     7     9   ar
