@<TRIPOS>MOLECULE
tmp/2pnuA00.pdb
 248 234 0 0 0
SMALL
GASTEIGER

@<TRIPOS>ATOM
      1  N         31.5450    0.2010   -3.2860 N.3    32  LEU32      -0.1245
      2  CA        31.7010   -0.0250   -1.8550 C.3    32  LEU32       0.1561
      3  C         32.8070    0.8380   -1.2540 C.2    32  LEU32       0.2260
      4  O         32.7350    1.2180   -0.0890 O.2    32  LEU32      -0.2867
      5  CB        31.9380   -1.5110   -1.5630 C.3    32  LEU32       0.0270
      6  CG        30.6550   -2.3310   -1.3600 C.3    32  LEU32       0.0019
      7  CD1       29.9420   -1.8600   -0.0910 C.3    32  LEU32       0.0001
      8  CD2       29.7310   -2.1840   -2.5630 C.3    32  LEU32       0.0001
      9  N         31.1960    4.0310   -0.6540 N.3    35  LEU35      -0.1231
     10  CA        30.2690    3.9420    0.4700 C.3    35  LEU35       0.1693
     11  C         31.0700    3.9660    1.7700 C.2    35  LEU35       0.2592
     12  O         30.6560    4.5810    2.7520 O.2    35  LEU35      -0.2718
     13  CB        29.4210    2.6640    0.4000 C.3    35  LEU35       0.0284
     14  CG        28.2610    2.6560   -0.5980 C.3    35  LEU35       0.0019
     15  CD1       27.6730    1.2530   -0.6670 C.3    35  LEU35       0.0001
     16  CD2       27.1970    3.6640   -0.1790 C.3    35  LEU35       0.0001
     17  N         32.2260    3.3050    1.7800 N.am   36  ASN36      -0.1974
     18  CA        33.0510    3.3040    2.9830 C.3    36  ASN36       0.1688
     19  C         33.6000    4.6930    3.2670 C.2    36  ASN36       0.2292
     20  O         33.6750    5.1070    4.4240 O.2    36  ASN36      -0.2864
     21  CB        34.2040    2.3010    2.8660 C.3    36  ASN36       0.1181
     22  CG        33.7690    0.8860    3.1770 C.2    36  ASN36       0.2629
     23  OD1       32.8370    0.6710    3.9540 O.2    36  ASN36      -0.2716
     24  ND2       34.4510   -0.0920    2.5870 N.am   36  ASN36      -0.0877
     25  N         32.1900    7.4740    2.3950 N.3    38  LEU38      -0.1231
     26  CA        31.0380    8.2370    2.8540 C.3    38  LEU38       0.1693
     27  C         30.7990    7.8840    4.3160 C.2    38  LEU38       0.2592
     28  O         30.5020    8.7520    5.1400 O.2    38  LEU38      -0.2718
     29  CB        29.7970    7.8840    2.0230 C.3    38  LEU38       0.0284
     30  CG        28.4760    8.4990    2.5000 C.3    38  LEU38       0.0019
     31  CD1       28.5860   10.0240    2.4740 C.3    38  LEU38       0.0001
     32  CD2       27.3200    8.0240    1.6200 C.3    38  LEU38       0.0001
     33  N         30.9390    6.5990    4.6290 N.am   39  GLY39      -0.1957
     34  CA        30.7370    6.1390    5.9910 C.3    39  GLY39       0.1869
     35  C         31.6640    6.8380    6.9650 C.2    39  GLY39       0.2309
     36  O         31.2400    7.3160    8.0140 O.2    39  GLY39      -0.2863
     37  N         30.5150   10.4060    7.3720 N.3    42  GLN42      -0.1231
     38  CA        29.2620   10.4690    8.1200 C.3    42  GLN42       0.1698
     39  C         29.4650   10.1970    9.6060 C.2    42  GLN42       0.2592
     40  O         28.7930   10.7980   10.4430 O.2    42  GLN42      -0.2718
     41  CB        28.2520    9.4690    7.5550 C.3    42  GLN42       0.0381
     42  CG        27.5280    9.9400    6.3010 C.3    42  GLN42       0.0905
     43  CD        26.4810   11.0010    6.5890 C.2    42  GLN42       0.2608
     44  OE1       26.2050   11.3200    7.7460 O.2    42  GLN42      -0.2717
     45  NE2       25.8820   11.5430    5.5360 N.am   42  GLN42      -0.0878
     46  N         30.3830    9.2970    9.9440 N.am   43  LEU43      -0.1980
     47  CA        30.6260    8.9990   11.3490 C.3    43  LEU43       0.1596
     48  C         31.1640   10.2370   12.0620 C.2    43  LEU43       0.2287
     49  O         30.7890   10.5160   13.2020 O.2    43  LEU43      -0.2864
     50  CB        31.6060    7.8360   11.5030 C.3    43  LEU43       0.0297
     51  CG        31.8820    7.4160   12.9510 C.3    43  LEU43       0.0022
     52  CD1       30.5710    7.1090   13.6780 C.3    43  LEU43       0.0001
     53  CD2       32.7900    6.2000   12.9540 C.3    43  LEU43       0.0001
     54  N         28.1580    4.3220   18.2300 N.3    69  GLN69      -0.1245
     55  CA        28.5470    3.2440   17.3370 C.3    69  GLN69       0.1566
     56  C         27.4890    2.1540   17.1440 C.2    69  GLN69       0.2260
     57  O         27.3620    1.6100   16.0450 O.2    69  GLN69      -0.2867
     58  CB        29.8800    2.6580   17.7970 C.3    69  GLN69       0.0367
     59  CG        30.9710    3.7250   17.7590 C.3    69  GLN69       0.0905
     60  CD        32.3100    3.2440   18.2610 C.2    69  GLN69       0.2608
     61  OE1       32.3900    2.3350   19.0830 O.2    69  GLN69      -0.2717
     62  NE2       33.3780    3.8780   17.7850 N.am   69  GLN69      -0.0878
     63  N         24.6010    3.9150   15.0110 N.3    72  TRP72      -0.1227
     64  CA        25.0090    4.5240   13.7440 C.3    72  TRP72       0.1737
     65  C         24.3550    3.9840   12.4710 C.2    72  TRP72       0.2595
     66  O         23.8480    4.7580   11.6560 O.2    72  TRP72      -0.2718
     67  CB        26.5290    4.4400   13.5930 C.3    72  TRP72       0.0564
     68  CG        27.0630    5.2560   12.4540 C.ar   72  TRP72       0.0003
     69  CD1       27.2420    6.6070   12.4300 C.ar   72  TRP72       0.0946
     70  CD2       27.5180    4.7680   11.1860 C.ar   72  TRP72       0.0152
     71  NE1       27.7870    6.9950   11.2280 N.ar   72  TRP72      -0.2442
     72  CE2       27.9690    5.8860   10.4460 C.ar   72  TRP72       0.0810
     73  CE3       27.5900    3.4990   10.6030 C.ar   72  TRP72       0.0012
     74  CZ2       28.4930    5.7700    9.1490 C.ar   72  TRP72       0.0191
     75  CZ3       28.1110    3.3810    9.3100 C.ar   72  TRP72       0.0001
     76  CH2       28.5570    4.5130    8.6010 C.ar   72  TRP72       0.0015
     77  N         24.3720    2.6680   12.2790 N.am   73  MET73      -0.1979
     78  CA        23.7900    2.1030   11.0630 C.3    73  MET73       0.1605
     79  C         22.3270    2.5090   10.9210 C.2    73  MET73       0.2287
     80  O         21.8970    2.9380    9.8440 O.2    73  MET73      -0.2864
     81  CB        23.9080    0.5760   11.0490 C.3    73  MET73       0.0413
     82  CG        23.6750   -0.0320    9.6610 C.3    73  MET73       0.0598
     83  SD        24.9540    0.3990    8.4430 S.3    73  MET73      -0.1393
     84  CE        26.2650   -0.7590    8.9370 C.3    73  MET73       0.0692
     85  N         21.9750    6.1630   10.0240 N.3    76  MET76      -0.1230
     86  CA        22.3300    6.3950    8.6280 C.3    76  MET76       0.1702
     87  C         21.3020    5.8690    7.6370 C.2    76  MET76       0.2592
     88  O         21.0750    6.4800    6.5900 O.2    76  MET76      -0.2718
     89  CB        23.7080    5.7990    8.3410 C.3    76  MET76       0.0401
     90  CG        24.8170    6.4710    9.1370 C.3    76  MET76       0.0596
     91  SD        24.9970    8.2330    8.7370 S.3    76  MET76      -0.1393
     92  CE        23.9220    9.0130    9.9380 C.3    76  MET76       0.0692
     93  N         20.6780    4.7420    7.9610 N.am   77  VAL77      -0.1980
     94  CA        19.6530    4.1770    7.0890 C.3    77  VAL77       0.1595
     95  C         18.4450    5.1140    7.0760 C.2    77  VAL77       0.2287
     96  O         17.8810    5.4140    6.0230 O.2    77  VAL77      -0.2864
     97  CB        19.2040    2.7830    7.5850 C.3    77  VAL77       0.0276
     98  CG1       17.8910    2.3880    6.9240 C.3    77  VAL77       0.0022
     99  CG2       20.2760    1.7510    7.2650 C.3    77  VAL77       0.0022
    100  N         19.3860    8.4500    5.3040 N.3    80  MET80      -0.1245
    101  CA        19.5030    8.2400    3.8630 C.3    80  MET80       0.1570
    102  C         18.1180    8.0640    3.2560 C.2    80  MET80       0.2261
    103  O         17.8420    8.5650    2.1670 O.2    80  MET80      -0.2867
    104  CB        20.3860    7.0220    3.5740 C.3    80  MET80       0.0387
    105  CG        20.7650    6.8600    2.1010 C.3    80  MET80       0.0595
    106  SD        19.5050    6.0030    1.1300 S.3    80  MET80      -0.1393
    107  CE        19.7470    4.3140    1.7170 C.3    80  MET80       0.0692
    108  N         16.6430   11.4780    2.9030 N.3    83  ARG83      -0.1245
    109  CA        17.2710   12.1930    1.7920 C.3    83  ARG83       0.1563
    110  C         16.7050   11.7110    0.4580 C.2    83  ARG83       0.2260
    111  O         16.4790   12.5000   -0.4600 O.2    83  ARG83      -0.2867
    112  CB        18.7860   11.9590    1.7790 C.3    83  ARG83       0.0307
    113  CG        19.5590   12.6630    2.8690 C.3    83  ARG83       0.0489
    114  CD        21.0400   12.7480    2.4980 C.3    83  ARG83       0.2205
    115  NE        21.7110   11.4480    2.4540 N.pl3  83  ARG83      -0.0865
    116  CZ        22.0980   10.7690    3.5330 C.cat  83  ARG83       0.5346
    117  NH1       21.8800   11.2620    4.7460 N.pl3  83  ARG83       0.1354
    118  NH2       22.7270    9.6060    3.4000 N.pl3  83  ARG83       0.1354
    119  N         22.4370    8.2390   -1.3330 N.3    95  PHE95      -0.1241
    120  CA        23.4480    8.1200   -0.2870 C.3    95  PHE95       0.1605
    121  C         24.1480    9.4600   -0.0990 C.2    95  PHE95       0.2264
    122  O         24.4420    9.8690    1.0220 O.2    95  PHE95      -0.2867
    123  CB        24.4790    7.0420   -0.6430 C.3    95  PHE95       0.0534
    124  CG        23.9210    5.6480   -0.6290 C.ar   95  PHE95      -0.0203
    125  CD1       23.5010    5.0370   -1.8060 C.ar   95  PHE95      -0.0042
    126  CD2       23.7700    4.9590    0.5760 C.ar   95  PHE95      -0.0042
    127  CE1       22.9340    3.7570   -1.7890 C.ar   95  PHE95      -0.0003
    128  CE2       23.2050    3.6800    0.6070 C.ar   95  PHE95      -0.0003
    129  CZ        22.7850    3.0790   -0.5800 C.ar   95  PHE95      -0.0000
    130  N         24.2710   -5.3930   -3.0530 N.3   111  MET111     -0.1245
    131  CA        23.5140   -4.9860   -1.8870 C.3   111  MET111      0.1570
    132  C         22.0630   -4.7280   -2.2920 C.2   111  MET111      0.2261
    133  O         21.3610   -3.9500   -1.6480 O.2   111  MET111     -0.2867
    134  CB        24.1620   -3.7210   -1.3150 C.3   111  MET111      0.0387
    135  CG        23.8570   -3.4170    0.1340 C.3   111  MET111      0.0595
    136  SD        25.0170   -2.1830    0.7660 S.3   111  MET111     -0.1393
    137  CE        24.3270   -0.6860    0.0960 C.3   111  MET111      0.0692
    138  N         15.7610   -0.4930    2.1910 N.3   118  MET118     -0.1245
    139  CA        16.0270    0.9140    2.4500 C.3   118  MET118      0.1570
    140  C         15.1290    1.8110    1.6010 C.2   118  MET118      0.2261
    141  O         14.6620    2.8510    2.0680 O.2   118  MET118     -0.2867
    142  CB        17.5090    1.2340    2.2120 C.3   118  MET118      0.0387
    143  CG        18.4260    0.5870    3.2360 C.3   118  MET118      0.0595
    144  SD        20.1240    1.1870    3.1750 S.3   118  MET118     -0.1393
    145  CE        20.7760    0.2050    1.8300 C.3   118  MET118      0.0692
    146  N         22.3800   -4.8110    7.2660 N.3   199  LEU199     -0.1231
    147  CA        23.5690   -4.0710    6.8690 C.3   199  LEU199      0.1693
    148  C         24.7350   -4.4080    7.7940 C.2   199  LEU199      0.2592
    149  O         25.8840   -4.4290    7.3640 O.2   199  LEU199     -0.2718
    150  CB        23.2830   -2.5650    6.8680 C.3   199  LEU199      0.0284
    151  CG        22.4350   -2.1110    5.6730 C.3   199  LEU199      0.0019
    152  CD1       22.1220   -0.6370    5.8060 C.3   199  LEU199      0.0001
    153  CD2       23.1890   -2.3890    4.3670 C.3   199  LEU199      0.0001
    154  N         24.4380   -4.6760    9.0630 N.am  200  HIS200     -0.1976
    155  CA        25.4850   -5.0570   10.0110 C.3   200  HIS200      0.1656
    156  C         26.0810   -6.3810    9.5380 C.2   200  HIS200      0.2291
    157  O         27.2970   -6.5590    9.5170 O.2   200  HIS200     -0.2864
    158  CB        24.8990   -5.2290   11.4140 C.3   200  HIS200      0.0771
    159  CG        24.6910   -3.9400   12.1410 C.ar  200  HIS200      0.0820
    160  ND1       23.5840   -3.6940   12.9240 N.ar  200  HIS200     -0.2267
    161  CD2       25.4670   -2.8340   12.2280 C.ar  200  HIS200      0.1154
    162  CE1       23.6870   -2.4910   13.4620 C.ar  200  HIS200      0.1986
    163  NE2       24.8200   -1.9480   13.0560 N.ar  200  HIS200     -0.2212
    164  N         25.9760   -7.6400    6.4780 N.3   202  PHE202     -0.1227
    165  CA        26.6470   -7.4010    5.2070 C.3   202  PHE202      0.1736
    166  C         28.0220   -6.7730    5.3930 C.2   202  PHE202      0.2596
    167  O         29.0040   -7.2240    4.8020 O.2   202  PHE202     -0.2718
    168  CB        25.7700   -6.5060    4.3210 C.3   202  PHE202      0.0547
    169  CG        26.3350   -6.2660    2.9500 C.ar  202  PHE202     -0.0202
    170  CD1       27.2400   -5.2320    2.7250 C.ar  202  PHE202     -0.0042
    171  CD2       25.9680   -7.0820    1.8830 C.ar  202  PHE202     -0.0042
    172  CE1       27.7770   -5.0110    1.4560 C.ar  202  PHE202     -0.0003
    173  CE2       26.4990   -6.8720    0.6060 C.ar  202  PHE202     -0.0003
    174  CZ        27.4050   -5.8350    0.3940 C.ar  202  PHE202     -0.0000
    175  N         28.1060   -5.7280    6.2110 N.am  203  THR203     -0.1953
    176  CA        29.3890   -5.0670    6.4170 C.3   203  THR203      0.1897
    177  C         30.3740   -5.9860    7.1380 C.2   203  THR203      0.2313
    178  O         31.5650   -5.9820    6.8280 O.2   203  THR203     -0.2863
    179  CB        29.2280   -3.7350    7.1930 C.3   203  THR203      0.1794
    180  OG1       30.4480   -2.9880    7.1150 O.3   203  THR203     -0.2208
    181  CG2       28.8800   -3.9890    8.6440 C.3   203  THR203      0.0378
    182  N         31.6070   -8.4560    4.6510 N.3   206  LEU206     -0.1245
    183  CA        32.4580   -7.7760    3.6910 C.3   206  LEU206      0.1561
    184  C         33.8490   -7.5190    4.2620 C.2   206  LEU206      0.2260
    185  O         34.8450   -7.6480    3.5540 O.2   206  LEU206     -0.2867
    186  CB        31.8090   -6.4600    3.2520 C.3   206  LEU206      0.0270
    187  CG        32.4990   -5.7270    2.1010 C.3   206  LEU206      0.0019
    188  CD1       32.7150   -6.6780    0.9300 C.3   206  LEU206      0.0001
    189  CD2       31.6430   -4.5390    1.6810 C.3   206  LEU206      0.0001
    190  N         38.6920   -0.9470    3.3450 N.3   217  PHE217     -0.1241
    191  CA        38.1120   -0.4170    4.5830 C.3   217  PHE217      0.1605
    192  C         39.0980    0.4630    5.3390 C.2   217  PHE217      0.2264
    193  O         40.2040    0.0290    5.6580 O.2   217  PHE217     -0.2867
    194  CB        37.6850   -1.5370    5.5410 C.3   217  PHE217      0.0534
    195  CG        36.3800   -2.1820    5.1970 C.ar  217  PHE217     -0.0203
    196  CD1       36.3190   -3.2130    4.2690 C.ar  217  PHE217     -0.0042
    197  CD2       35.2060   -1.7700    5.8220 C.ar  217  PHE217     -0.0042
    198  CE1       35.1080   -3.8320    3.9680 C.ar  217  PHE217     -0.0003
    199  CE2       33.9920   -2.3810    5.5280 C.ar  217  PHE217     -0.0003
    200  CZ        33.9430   -3.4150    4.6000 C.ar  217  PHE217     -0.0000
    201  N         37.1780    2.2670   10.5190 N.3   221  MET221     -0.1245
    202  CA        35.9470    1.5280   10.2550 C.3   221  MET221      0.1570
    203  C         36.1440    0.0470   10.5490 C.2   221  MET221      0.2261
    204  O         35.2800   -0.5960   11.1410 O.2   221  MET221     -0.2867
    205  CB        35.5190    1.6930    8.7930 C.3   221  MET221      0.0387
    206  CG        35.1260    3.1060    8.3920 C.3   221  MET221      0.0595
    207  SD        33.6350    3.7130    9.1970 S.3   221  MET221     -0.1393
    208  CE        34.3470    4.6960   10.4880 C.3   221  MET221      0.0692
    209  N         35.9790   -0.5740   14.3280 N.3   224  ILE224     -0.1231
    210  CA        34.6200   -0.5110   14.8460 C.3   224  ILE224      0.1692
    211  C         33.8040   -1.7250   14.4070 C.2   224  ILE224      0.2591
    212  O         33.0430   -2.2940   15.1940 O.2   224  ILE224     -0.2718
    213  CB        33.9050    0.7750   14.3750 C.3   224  ILE224      0.0266
    214  CG1       34.6150    2.0010   14.9470 C.3   224  ILE224      0.0019
    215  CG2       32.4550    0.7530   14.8200 C.3   224  ILE224      0.0020
    216  CD1       34.0670    3.3290   14.4320 C.3   224  ILE224      0.0001
    217  N         33.9600   -2.1220   13.1480 N.am  225  ILE225     -0.1980
    218  CA        33.2240   -3.2680   12.6330 C.3   225  ILE225      0.1595
    219  C         33.6510   -4.5700   13.3140 C.2   225  ILE225      0.2287
    220  O         32.8200   -5.4320   13.5870 O.2   225  ILE225     -0.2864
    221  CB        33.4100   -3.4090   11.1030 C.3   225  ILE225      0.0276
    222  CG1       32.8080   -2.1900   10.3940 C.3   225  ILE225      0.0022
    223  CG2       32.7350   -4.6860   10.6040 C.3   225  ILE225      0.0022
    224  CD1       33.1830   -2.0790    8.9260 C.3   225  ILE225      0.0001
    225  N         32.5880   -3.7490   17.5820 N.3   228  GLN228     -0.1231
    226  CA        31.2060   -3.4570   17.9300 C.3   228  GLN228      0.1698
    227  C         30.1370   -4.2390   17.1810 C.2   228  GLN228      0.2592
    228  O         29.1770   -4.7170   17.7920 O.2   228  GLN228     -0.2718
    229  CB        30.9400   -1.9590   17.7470 C.3   228  GLN228      0.0381
    230  CG        31.8730   -1.0670   18.5470 C.3   228  GLN228      0.0905
    231  CD        31.6100   -1.1310   20.0360 C.2   228  GLN228      0.2608
    232  OE1       31.5130   -2.2120   20.6180 O.2   228  GLN228     -0.2717
    233  NE2       31.4970    0.0340   20.6670 N.am  228  GLN228     -0.0878
    234  N         30.2880   -4.3730   15.8680 N.am  229  VAL229     -0.1980
    235  CA        29.2800   -5.0790   15.0920 C.3   229  VAL229      0.1595
    236  C         29.0230   -6.5210   15.5470 C.2   229  VAL229      0.2287
    237  O         27.8730   -6.9570   15.5890 O.2   229  VAL229     -0.2864
    238  CB        29.6110   -5.0460   13.5840 C.3   229  VAL229      0.0276
    239  CG1       28.5720   -5.8410   12.7970 C.3   229  VAL229      0.0022
    240  CG2       29.6290   -3.5990   13.1030 C.3   229  VAL229      0.0022
    241  N         26.5260   -6.9290   18.2880 N.3   232  ILE232     -0.1245
    242  CA        25.1540   -6.8350   17.8180 C.3   232  ILE232      0.1561
    243  C         24.7180   -8.1520   17.1850 C.2   232  ILE232      0.2260
    244  O         23.6700   -8.6970   17.5250 O.2   232  ILE232     -0.2867
    245  CB        25.0190   -5.7050   16.7800 C.3   232  ILE232      0.0252
    246  CG1       25.3830   -4.3690   17.4390 C.3   232  ILE232      0.0019
    247  CG2       23.6060   -5.6870   16.2090 C.3   232  ILE232      0.0019
    248  CD1       25.4280   -3.1930   16.4820 C.3   232  ILE232      0.0001
@<TRIPOS>BOND
     1     1     2    1
     2   130   131    1
     3     8     6    1
     4   132   131    1
     5   132   133    2
     6   131   134    1
     7     2     5    1
     8     2     3    1
     9   125   127   ar
    10   125   124   ar
    11   127   129   ar
    12     5     6    1
    13     6     7    1
    14   119   120    1
    15   134   135    1
    16     3     4    2
    17    15    14    1
    18     9    10    1
    19   123   124    1
    20   123   120    1
    21   124   126   ar
    22    14    16    1
    23    14    13    1
    24   129   128   ar
    25   111   110    2
    26   120   121    1
    27   121   122    2
    28   137   136    1
    29   135   136    1
    30   174   173   ar
    31   174   172   ar
    32    13    10    1
    33   110   109    1
    34    10    11    1
    35   126   128   ar
    36   173   171   ar
    37   188   187    1
    38   106   107    1
    39   106   105    1
    40   172   170   ar
    41   140   141    2
    42   140   139    1
    43    32    30    1
    44   189   187    1
    45    11    17   am
    46    11    12    2
    47   112   109    1
    48   112   113    1
    49    17    18    1
    50   109   108    1
    51   145   144    1
    52   171   169   ar
    53    29    30    1
    54    29    26    1
    55   105   104    1
    56   187   186    1
    57   103   102    2
    58   138   139    1
    59   142   139    1
    60   142   143    1
    61    25    26    1
    62   115   114    1
    63   115   116    2
    64    31    30    1
    65   114   113    1
    66    24    22   am
    67   170   169   ar
    68    26    27    1
    69    21    18    1
    70    21    22    1
    71   169   168    1
    72    18    19    1
    73   144   143    1
    74    22    23    2
    75   186   183    1
    76   102   101    1
    77    19    20    2
    78   190   191    1
    79   118   116    1
    80   116   117    1
    81   185   184    2
    82   104   101    1
    83   183   184    1
    84   183   182    1
    85   101   100    1
    86   198   196   ar
    87   198   200   ar
    88   196   195   ar
    89    27    33   am
    90    27    28    2
    91   168   165    1
    92   153   151    1
    93   191   192    1
    94   191   194    1
    95   200   199   ar
    96    33    34    1
    97   167   166    2
    98   195   194    1
    99   195   197   ar
   100   165   166    1
   101   165   164    1
   102   192   193    2
   103   166   175   am
   104   199   197   ar
   105    45    43   am
   106   151   152    1
   107   151   150    1
   108    34    35    1
   109    96    95    2
   110   175   176    1
   111    42    43    1
   112    42    41    1
   113   176   177    1
   114   176   179    1
   115    43    44    2
   116    88    87    2
   117   178   177    2
   118   150   147    1
   119   147   146    1
   120   147   148    1
   121    98    97    1
   122    35    36    2
   123    95    94    1
   124    94    97    1
   125    94    93    1
   126   180   179    1
   127   179   181    1
   128    99    97    1
   129   149   148    2
   130    37    38    1
   131    41    38    1
   132    87    93   am
   133    87    86    1
   134   148   154   am
   135    38    39    1
   136    89    86    1
   137    89    90    1
   138   206   205    1
   139   206   207    1
   140    83    84    1
   141    83    82    1
   142    76    74   ar
   143    76    75   ar
   144    86    85    1
   145    91    90    1
   146    91    92    1
   147   205   202    1
   148   224   222    1
   149   154   155    1
   150    74    72   ar
   151   207   208    1
   152    75    73   ar
   153   157   156    2
   154   156   155    1
   155    39    46   am
   156    39    40    2
   157    82    81    1
   158    80    79    2
   159    46    47    1
   160   155   158    1
   161   202   201    1
   162   202   203    1
   163   222   221    1
   164    72    70   ar
   165    72    71   ar
   166   203   204    2
   167    73    70   ar
   168   223   221    1
   169    79    78    1
   170    81    78    1
   171    78    77    1
   172   221   218    1
   173    70    68   ar
   174    71    69   ar
   175    47    50    1
   176    47    48    1
   177   158   159    1
   178    50    51    1
   179    66    65    2
   180    48    49    2
   181   159   161   ar
   182   159   160   ar
   183   161   163   ar
   184    77    65   am
   185    69    68   ar
   186    68    67    1
   187    65    64    1
   188   218   217    1
   189   218   219    1
   190   239   238    1
   191   160   162   ar
   192    51    53    1
   193    51    52    1
   194   163   162   ar
   195   240   238    1
   196   217   211   am
   197   219   220    2
   198   238   235    1
   199    67    64    1
   200    64    63    1
   201   209   210    1
   202   213   215    1
   203   213   210    1
   204   213   214    1
   205   211   210    1
   206   211   212    2
   207   216   214    1
   208   235   236    1
   209   235   234    1
   210   236   237    2
   211   234   227   am
   212    57    56    2
   213   247   245    1
   214   248   246    1
   215   245   246    1
   216   245   242    1
   217    56    55    1
   218   227   228    2
   219   227   226    1
   220   243   244    2
   221   243   242    1
   222    55    58    1
   223    55    54    1
   224   225   226    1
   225   229   226    1
   226   229   230    1
   227    59    58    1
   228    59    60    1
   229    62    60   am
   230   242   241    1
   231    60    61    2
   232   230   231    1
   233   231   232    2
   234   231   233   am
