@<TRIPOS>MOLECULE
tmp/2pnxA00.pdb
 156 158 0 0 0
SMALL
GASTEIGER

@<TRIPOS>ATOM
      1  N         51.5660   40.3500    9.1450 N.3     4  TYR4       -0.1241
      2  CA        50.8520   39.3790    9.9710 C.3     4  TYR4        0.1605
      3  C         49.5410   39.9860   10.4480 C.2     4  TYR4        0.2264
      4  O         49.1490   41.0740   10.0270 O.2     4  TYR4       -0.2867
      5  CB        51.6830   39.0220   11.2100 C.3     4  TYR4        0.0534
      6  CG        53.0670   38.4830   10.9280 C.ar    4  TYR4       -0.0201
      7  CD1       54.1430   39.3400   10.7050 C.ar    4  TYR4       -0.0009
      8  CD2       53.2960   37.1120   10.8810 C.ar    4  TYR4       -0.0009
      9  CE1       55.4230   38.8380   10.4420 C.ar    4  TYR4        0.0417
     10  CE2       54.5640   36.5980   10.6190 C.ar    4  TYR4        0.0417
     11  CZ        55.6230   37.4670   10.4000 C.ar    4  TYR4        0.1957
     12  OH        56.8770   36.9620   10.1430 O.3     4  TYR4       -0.2866
     13  N         55.3200   43.2990   11.6690 N.3    11  SER11      -0.1202
     14  CA        55.3910   43.0120   13.0910 C.3    11  SER11       0.2020
     15  C         55.8020   44.2890   13.8250 C.2    11  SER11       0.2619
     16  O         56.5700   45.0950   13.3030 O.2    11  SER11      -0.2717
     17  CB        56.4260   41.9150   13.3500 C.3    11  SER11       0.2103
     18  OG        56.5810   41.6850   14.7380 O.3    11  SER11      -0.2182
     19  N         55.2580   44.4750   15.0230 N.am   12  TYR12      -0.1961
     20  CA        55.5900   45.6230   15.8720 C.3    12  TYR12       0.1771
     21  C         55.0250   45.3460   17.2630 C.2    12  TYR12       0.2620
     22  O         53.9990   44.6770   17.4050 O.2    12  TYR12      -0.2715
     23  CB        55.0290   46.9390   15.2920 C.3    12  TYR12       0.0574
     24  CG        53.5210   47.0920   15.3000 C.ar   12  TYR12      -0.0198
     25  CD1       52.8300   47.3670   16.4810 C.ar   12  TYR12      -0.0009
     26  CD2       52.7860   46.9790   14.1190 C.ar   12  TYR12      -0.0009
     27  CE1       51.4460   47.5240   16.4870 C.ar   12  TYR12       0.0417
     28  CE2       51.4000   47.1330   14.1120 C.ar   12  TYR12       0.0417
     29  CZ        50.7370   47.4060   15.2990 C.ar   12  TYR12       0.1957
     30  OH        49.3700   47.5580   15.3020 O.3    12  TYR12      -0.2866
     31  N         55.7120   45.8440   18.2880 N.am   13  GLY13      -0.1940
     32  CA        55.2610   45.6260   19.6500 C.3    13  GLY13       0.2014
     33  C         55.2430   44.1490   20.0000 C.2    13  GLY13       0.2639
     34  O         55.9470   43.3530   19.3840 O.2    13  GLY13      -0.2714
     35  N         54.4410   43.7830   20.9950 N.am   14  GLU14      -0.1963
     36  CA        54.3300   42.3860   21.4180 C.3    14  GLU14       0.1733
     37  C         53.3690   41.6590   20.4800 C.2    14  GLU14       0.2616
     38  O         52.3140   42.1890   20.1270 O.2    14  GLU14      -0.2715
     39  CB        53.8030   42.2990   22.8490 C.3    14  GLU14       0.0429
     40  CG        54.8460   42.5650   23.9050 C.3    14  GLU14       0.1163
     41  CD        54.3160   42.3350   25.3040 C.2    14  GLU14       0.3649
     42  OE1       53.5450   43.1860   25.7980 O.co2  14  GLU14      -0.2457
     43  OE2       54.6640   41.2960   25.9000 O.co2  14  GLU14      -0.2457
     44  N         53.7430   40.4420   20.0930 N.am   15  MET15      -0.1963
     45  CA        52.9290   39.6160   19.1900 C.3    15  MET15       0.1736
     46  C         52.5660   38.3220   19.9200 C.2    15  MET15       0.2616
     47  O         53.3500   37.8140   20.7170 O.2    15  MET15      -0.2715
     48  CB        53.7280   39.2470   17.9390 C.3    15  MET15       0.0427
     49  CG        54.3970   40.4050   17.2340 C.3    15  MET15       0.0599
     50  SD        53.2340   41.4410   16.3730 S.3    15  MET15      -0.1393
     51  CE        52.8910   40.4340   14.9110 C.3    15  MET15       0.0692
     52  N         51.3850   37.7850   19.6330 N.am   16  ILE16      -0.1963
     53  CA        50.9480   36.5380   20.2620 C.3    16  ILE16       0.1727
     54  C         50.7080   35.5150   19.1510 C.2    16  ILE16       0.2617
     55  O         50.1880   35.8560   18.0880 O.2    16  ILE16      -0.2715
     56  CB        49.6560   36.7470   21.0910 C.3    16  ILE16       0.0290
     57  CG1       49.2350   35.4240   21.7380 C.3    16  ILE16       0.0022
     58  CG2       48.5480   37.3170   20.2110 C.3    16  ILE16       0.0023
     59  CD1       48.1220   35.5690   22.7570 C.3    16  ILE16       0.0001
     60  N         51.1040   34.2690   19.3970 N.am   17  GLY17      -0.1940
     61  CA        50.9300   33.2270   18.3990 C.3    17  GLY17       0.2014
     62  C         49.7040   32.3560   18.6110 C.2    17  GLY17       0.2639
     63  O         49.3890   31.9760   19.7400 O.2    17  GLY17      -0.2714
     64  N         49.0060   32.0400   17.5230 N.am   18  CYS18      -0.1953
     65  CA        47.8130   31.1940   17.5980 C.3    18  CYS18       0.1843
     66  C         48.2800   29.7450   17.7590 C.2    18  CYS18       0.2625
     67  O         49.2190   29.3140   17.0920 O.2    18  CYS18      -0.2714
     68  CB        46.9800   31.3400   16.3260 C.3    18  CYS18       0.0997
     69  SG        45.4900   30.3410   16.3540 S.3    18  CYS18      -0.0797
     70  N         47.6090   28.9880   18.6230 N.am   19  ASP19      -0.1971
     71  CA        48.0280   27.6140   18.8730 C.3    19  ASP19       0.1709
     72  C         47.3920   26.5900   17.9380 C.2    19  ASP19       0.2293
     73  O         47.5010   25.3840   18.1660 O.2    19  ASP19      -0.2864
     74  CB        47.8210   27.2730   20.3460 C.3    19  ASP19       0.1436
     75  CG        48.9310   27.8390   21.2080 C.2    19  ASP19       0.3671
     76  OD1       48.6540   28.3550   22.3110 O.co2  19  ASP19      -0.2456
     77  OD2       50.0970   27.7660   20.7620 O.co2  19  ASP19      -0.2456
     78  N         48.7160   32.9030   12.0740 N.3    26  GLU26      -0.1231
     79  CA        49.7900   32.4900   13.0020 C.3    26  GLU26       0.1699
     80  C         50.1950   33.5260   14.0680 C.2    26  GLU26       0.2592
     81  O         50.3010   33.1650   15.2410 O.2    26  GLU26      -0.2718
     82  CB        51.0280   32.0600   12.2110 C.3    26  GLU26       0.0402
     83  CG        50.7490   30.9260   11.2340 C.3    26  GLU26       0.1161
     84  CD        52.0010   30.4230   10.5460 C.2    26  GLU26       0.3649
     85  OE1       52.9000   29.9130   11.2450 O.co2  26  GLU26      -0.2457
     86  OE2       52.0870   30.5380    9.3080 O.co2  26  GLU26      -0.2457
     87  N         50.4470   34.7770   13.6830 N.am   27  TRP27      -0.1976
     88  CA        50.8740   35.7970   14.6700 C.3    27  TRP27       0.1640
     89  C         49.9960   37.0490   14.5930 C.2    27  TRP27       0.2290
     90  O         49.6040   37.4750   13.5130 O.2    27  TRP27      -0.2864
     91  CB        52.3410   36.1700   14.4500 C.3    27  TRP27       0.0576
     92  CG        53.2760   35.0580   14.8060 C.ar   27  TRP27       0.0006
     93  CD1       53.7800   34.1050   13.9670 C.ar   27  TRP27       0.0946
     94  CD2       53.7590   34.7390   16.1150 C.ar   27  TRP27       0.0152
     95  NE1       54.5470   33.2080   14.6750 N.ar   27  TRP27      -0.2442
     96  CE2       54.5510   33.5730   15.9950 C.ar   27  TRP27       0.0810
     97  CE3       53.5990   35.3230   17.3790 C.ar   27  TRP27       0.0012
     98  CZ2       55.1820   32.9790   17.0950 C.ar   27  TRP27       0.0191
     99  CZ3       54.2260   34.7340   18.4740 C.ar   27  TRP27       0.0001
    100  CH2       55.0090   33.5710   18.3220 C.ar   27  TRP27       0.0015
    101  N         49.2000   42.2940   19.8440 N.3    30  PHE30      -0.1241
    102  CA        48.4000   42.2180   21.0780 C.3    30  PHE30       0.1605
    103  C         47.0950   43.0280   20.9830 C.2    30  PHE30       0.2264
    104  O         46.0120   42.4840   21.1720 O.2    30  PHE30      -0.2867
    105  CB        49.1990   42.7360   22.2830 C.3    30  PHE30       0.0534
    106  CG        49.9660   41.6690   23.0250 C.ar   30  PHE30      -0.0203
    107  CD1       50.2760   41.8420   24.3730 C.ar   30  PHE30      -0.0042
    108  CD2       50.3960   40.5100   22.3840 C.ar   30  PHE30      -0.0042
    109  CE1       51.0020   40.8780   25.0750 C.ar   30  PHE30      -0.0003
    110  CE2       51.1250   39.5390   23.0780 C.ar   30  PHE30      -0.0003
    111  CZ        51.4270   39.7270   24.4290 C.ar   30  PHE30      -0.0000
    112  N         49.8330   38.9970   28.1820 N.3    38  LYS38      -0.1231
    113  CA        49.6380   37.6630   27.6060 C.3    38  LYS38       0.1678
    114  C         48.7630   36.7790   28.4890 C.2    38  LYS38       0.2434
    115  O         48.8940   36.7660   29.7140 O.2    38  LYS38      -0.2733
    116  CB        50.9830   36.9710   27.3800 C.3    38  LYS38       0.0284
    117  CG        51.7140   36.6020   28.6530 C.3    38  LYS38       0.0035
    118  CD        52.9690   35.8050   28.3470 C.3    38  LYS38       0.0206
    119  CE        53.7090   35.4400   29.6220 C.3    38  LYS38       0.1093
    120  NZ        54.9320   34.6380   29.3380 N.3    38  LYS38      -0.1314
    121  N         47.8450   36.0260   27.8630 N.am   39  PRO39      -0.2718
    122  CA        46.9630   35.1330   28.6140 C.3    39  PRO39       0.1535
    123  C         47.7760   33.9040   29.0200 C.2    39  PRO39       0.2598
    124  O         48.8240   33.6240   28.4320 O.2    39  PRO39      -0.2715
    125  CB        45.8670   34.8060   27.6040 C.3    39  PRO39       0.0310
    126  CG        46.6070   34.8260   26.3040 C.3    39  PRO39       0.0237
    127  CD        47.4760   36.0530   26.4360 C.3    39  PRO39       0.0939
    128  N         47.3020   33.1860   30.0300 N.am   40  ARG40      -0.1964
    129  CA        47.9930   31.9910   30.5090 C.3    40  ARG40       0.1729
    130  C         47.5030   30.8020   29.6790 C.2    40  ARG40       0.2616
    131  O         46.3350   30.7440   29.3000 O.2    40  ARG40      -0.2715
    132  CB        47.6660   31.7620   31.9880 C.3    40  ARG40       0.0348
    133  CG        48.4600   30.6490   32.6560 C.3    40  ARG40       0.0492
    134  CD        49.9260   31.0270   32.8040 C.3    40  ARG40       0.2205
    135  NE        50.7030   29.9780   33.4600 N.pl3  40  ARG40      -0.0865
    136  CZ        52.0080   30.0580   33.7080 C.cat  40  ARG40       0.5346
    137  NH1       52.6880   31.1410   33.3540 N.pl3  40  ARG40       0.1354
    138  NH2       52.6340   29.0530   34.3070 N.pl3  40  ARG40       0.1354
    139  N         48.4000   29.8650   29.3910 N.am   41  GLY41      -0.1955
    140  CA        48.0130   28.6910   28.6260 C.3    41  GLY41       0.1869
    141  C         47.8720   28.9040   27.1290 C.2    41  GLY41       0.2309
    142  O         48.2270   29.9570   26.5970 O.2    41  GLY41      -0.2863
    143  N         46.3160   29.6060   23.4570 N.3    43  TRP43      -0.1241
    144  CA        45.4260   30.6680   22.9820 C.3    43  TRP43       0.1605
    145  C         45.1390   30.4570   21.4950 C.2    43  TRP43       0.2264
    146  O         46.0300   30.0950   20.7320 O.2    43  TRP43      -0.2867
    147  CB        46.1080   32.0250   23.1880 C.3    43  TRP43       0.0550
    148  CG        45.3600   33.1980   22.6280 C.ar   43  TRP43       0.0003
    149  CD1       44.3760   33.9180   23.2450 C.ar   43  TRP43       0.0946
    150  CD2       45.5450   33.7930   21.3380 C.ar   43  TRP43       0.0152
    151  NE1       43.9390   34.9280   22.4190 N.ar   43  TRP43      -0.2442
    152  CE2       44.6410   34.8740   21.2420 C.ar   43  TRP43       0.0810
    153  CE3       46.3880   33.5170   20.2530 C.ar   43  TRP43       0.0012
    154  CZ2       44.5550   35.6830   20.1010 C.ar   43  TRP43       0.0191
    155  CZ3       46.3030   34.3200   19.1170 C.ar   43  TRP43       0.0001
    156  CH2       45.3920   35.3910   19.0530 C.ar   43  TRP43       0.0015
@<TRIPOS>BOND
     1     1     2    1
     2    86    84   ar
     3     2     3    1
     4     2     5    1
     5     4     3    2
     6    12    11    1
     7    11     9   ar
     8    11    10   ar
     9     9     7   ar
    10    84    83    1
    11    84    85   ar
    12    10     8   ar
    13     7     6   ar
    14     8     6   ar
    15     6     5    1
    16    83    82    1
    17    13    14    1
    18    78    79    1
    19    82    79    1
    20    79    80    1
    21    14    17    1
    22    14    15    1
    23    16    15    2
    24    17    18    1
    25    90    89    2
    26    87    80   am
    27    87    88    1
    28    15    19   am
    29    93    95   ar
    30    93    92   ar
    31    80    81    2
    32    28    26   ar
    33    28    29   ar
    34    26    24   ar
    35    91    88    1
    36    91    92    1
    37    89    88    1
    38    95    96   ar
    39    92    94   ar
    40    51    50    1
    41    19    20    1
    42    23    24    1
    43    23    20    1
    44    29    30    1
    45    29    27   ar
    46    24    25   ar
    47    20    21    1
    48    96    94   ar
    49    96    98   ar
    50    94    97   ar
    51    68    69    1
    52    68    65    1
    53    50    49    1
    54    25    27   ar
    55    67    66    2
    56    98   100   ar
    57    49    48    1
    58    21    22    2
    59    21    31   am
    60    97    99   ar
    61    64    65    1
    62    64    62   am
    63    65    66    1
    64    66    70   am
    65    72    73    2
    66    72    71    1
    67    48    45    1
    68    55    54    2
    69    31    32    1
    70   100    99   ar
    71    61    62    1
    72    61    60    1
    73    62    63    2
    74    70    71    1
    75    71    74    1
    76   156   155   ar
    77   156   154   ar
    78   155   153   ar
    79    54    60   am
    80    54    53    1
    81    45    46    1
    82    45    44    1
    83    34    33    2
    84    52    46   am
    85    52    53    1
    86    32    33    1
    87   101   102    1
    88    46    47    2
    89    33    35   am
    90    44    37   am
    91   154   152   ar
    92    38    37    2
    93    58    56    1
    94   153   150   ar
    95    53    56    1
    96    74    75    1
    97    37    36    1
    98   146   145    2
    99    77    75   ar
   100   103   102    1
   101   103   104    2
   102    35    36    1
   103   102   105    1
   104    56    57    1
   105    75    76   ar
   106   152   150   ar
   107   152   151   ar
   108   150   148   ar
   109    36    39    1
   110   145   144    1
   111    57    59    1
   112   105   106    1
   113   108   106   ar
   114   108   110   ar
   115   151   149   ar
   116   148   147    1
   117   148   149   ar
   118    39    40    1
   119   144   147    1
   120   144   143    1
   121   106   107   ar
   122   110   111   ar
   123    40    41    1
   124   107   109   ar
   125   111   109   ar
   126    41    42   ar
   127    41    43   ar
   128   126   127    1
   129   126   125    1
   130   127   121    1
   131   142   141    2
   132   141   140    1
   133   116   113    1
   134   116   117    1
   135   125   122    1
   136   113   112    1
   137   113   114    1
   138   121   114   am
   139   121   122    1
   140   118   117    1
   141   118   119    1
   142   124   123    2
   143   114   115    2
   144   122   123    1
   145   140   139    1
   146   123   128   am
   147   131   130    2
   148   120   119    1
   149   139   130   am
   150   130   129    1
   151   128   129    1
   152   129   132    1
   153   132   133    1
   154   133   134    1
   155   134   135    1
   156   137   136    1
   157   135   136    2
   158   136   138    1
