@<TRIPOS>MOLECULE
tmp/2pnyA00.pdb
 149 139 0 0 0
SMALL
GASTEIGER

@<TRIPOS>ATOM
      1  N         17.5990   18.4190   18.8000 N.3    22  ARG22      -0.1245
      2  CA        18.5600   18.2600   17.6710 C.3    22  ARG22       0.1563
      3  C         19.9250   17.7360   18.1420 C.2    22  ARG22       0.2260
      4  O         20.7110   17.2400   17.3360 O.2    22  ARG22      -0.2867
      5  CB        18.6910   19.5650   16.8690 C.3    22  ARG22       0.0307
      6  CG        17.4120   19.9260   16.1460 C.3    22  ARG22       0.0489
      7  CD        17.5630   21.1530   15.2430 C.3    22  ARG22       0.2205
      8  NE        18.4860   20.7980   14.1750 N.pl3  22  ARG22      -0.0865
      9  CZ        19.7030   21.3110   14.0670 C.cat  22  ARG22       0.5346
     10  NH1       20.0980   22.2940   14.8980 N.pl3  22  ARG22       0.1354
     11  NH2       20.5020   20.8610   13.1180 N.pl3  22  ARG22       0.1354
     12  N         20.8250   14.2930   16.8550 N.3    25  GLU25      -0.1245
     13  CA        21.0860   14.0000   15.4220 C.3    25  GLU25       0.1567
     14  C         22.4090   13.2270   15.3530 C.2    25  GLU25       0.2260
     15  O         23.3540   13.5200   16.1180 O.2    25  GLU25      -0.2867
     16  CB        21.3210   15.3110   14.6330 C.3    25  GLU25       0.0388
     17  CG        20.0630   16.0360   14.2280 C.3    25  GLU25       0.1160
     18  CD        20.3320   17.3090   13.4220 C.2    25  GLU25       0.3649
     19  OE1       21.5080   17.6680   13.1310 O.co2  25  GLU25      -0.2457
     20  OE2       19.3680   17.9930   13.1250 O.co2  25  GLU25      -0.2457
     21  N         25.2560   14.8980   17.8060 N.3    42  LYS42      -0.1245
     22  CA        25.5940   16.3150   17.7730 C.3    42  LYS42       0.1561
     23  C         26.1190   16.7190   19.1680 C.2    42  LYS42       0.2260
     24  O         27.1420   17.4220   19.2830 O.2    42  LYS42      -0.2867
     25  CB        24.3690   17.1390   17.3750 C.3    42  LYS42       0.0271
     26  CG        24.6410   18.6540   17.3490 C.3    42  LYS42       0.0035
     27  CD        23.3490   19.3800   16.9430 C.3    42  LYS42       0.0206
     28  CE        23.5220   20.9520   17.0500 C.3    42  LYS42       0.1093
     29  NZ        24.2310   21.4160   15.8430 N.3    42  LYS42      -0.1314
     30  N         30.1220   18.0960   19.8710 N.3    46  HIS46      -0.1241
     31  CA        30.3320   19.5060   20.1930 C.3    46  HIS46       0.1621
     32  C         30.7380   19.7470   21.6530 C.2    46  HIS46       0.2264
     33  O         30.8120   20.8890   22.1160 O.2    46  HIS46      -0.2867
     34  CB        29.1020   20.3130   19.7320 C.3    46  HIS46       0.0745
     35  CG        28.9730   20.3480   18.2250 C.ar   46  HIS46       0.0817
     36  ND1       28.3350   19.3490   17.5160 N.ar   46  HIS46      -0.2268
     37  CD2       29.5010   21.1930   17.2950 C.ar   46  HIS46       0.1154
     38  CE1       28.4260   19.6220   16.2130 C.ar   46  HIS46       0.1986
     39  NE2       29.1610   20.7160   16.0450 N.ar   46  HIS46      -0.2212
     40  N         22.9620   34.1560   14.8260 N.3    76  ARG76      -0.1245
     41  CA        22.4440   32.9100   15.4530 C.3    76  ARG76       0.1563
     42  C         21.4870   33.2780   16.5440 C.2    76  ARG76       0.2260
     43  O         21.6980   34.2590   17.2480 O.2    76  ARG76      -0.2867
     44  CB        23.6170   32.0770   16.0370 C.3    76  ARG76       0.0307
     45  CG        24.5360   31.5950   14.9180 C.3    76  ARG76       0.0489
     46  CD        25.8090   31.0290   15.5830 C.3    76  ARG76       0.2205
     47  NE        25.6070   29.7430   16.2340 N.pl3  76  ARG76      -0.0865
     48  CZ        25.4230   28.5810   15.5980 C.cat  76  ARG76       0.5346
     49  NH1       25.3180   28.5360   14.2510 N.pl3  76  ARG76       0.1354
     50  NH2       25.3280   27.4470   16.2970 N.pl3  76  ARG76       0.1354
     51  N         20.7230   28.7900   20.3580 N.3    80  LYS80      -0.1245
     52  CA        21.6860   27.8250   19.8000 C.3    80  LYS80       0.1561
     53  C         22.5930   27.3260   20.9310 C.2    80  LYS80       0.2260
     54  O         22.9430   28.1110   21.8340 O.2    80  LYS80      -0.2867
     55  CB        22.5560   28.4680   18.6920 C.3    80  LYS80       0.0271
     56  CG        21.8210   28.8790   17.4290 C.3    80  LYS80       0.0035
     57  CD        21.0400   27.7010   16.7820 C.3    80  LYS80       0.0206
     58  CE        21.9830   26.6930   16.1640 C.3    80  LYS80       0.1093
     59  NZ        21.2390   25.5160   15.6390 N.3    80  LYS80      -0.1314
     60  N         25.7510   26.3510   20.6280 N.3    82  THR82      -0.1218
     61  CA        27.0710   26.9460   20.3830 C.3    82  THR82       0.1862
     62  C         26.9260   28.3430   19.7740 C.2    82  THR82       0.2287
     63  O         26.0470   28.5940   18.9410 O.2    82  THR82      -0.2866
     64  CB        27.9340   26.0500   19.4830 C.3    82  THR82       0.1770
     65  OG1       27.2040   25.7790   18.2650 O.3    82  THR82      -0.2211
     66  CG2       28.2970   24.6850   20.2190 C.3    82  THR82       0.0375
     67  N         25.4580   27.3540    8.5900 N.3    92  SER92      -0.1202
     68  CA        26.4300   26.2910    8.8910 C.3    92  SER92       0.2020
     69  C         25.7050   25.1170    9.5290 C.2    92  SER92       0.2619
     70  O         24.7380   25.2980   10.2380 O.2    92  SER92      -0.2717
     71  CB        27.5210   26.8360    9.8210 C.3    92  SER92       0.2103
     72  OG        26.9890   27.2170   11.1020 O.3    92  SER92      -0.2182
     73  N         26.1570   23.9030    9.2650 N.am   93  SER93      -0.1937
     74  CA        25.5480   22.7360    9.8550 C.3    93  SER93       0.2055
     75  C         26.3810   21.5710    9.4030 C.2    93  SER93       0.2643
     76  O         27.6060   21.7390    9.1410 O.2    93  SER93      -0.2714
     77  CB        24.0560   22.6030    9.4610 C.3    93  SER93       0.2130
     78  OG        23.4350   21.5410   10.2000 O.3    93  SER93      -0.2179
     79  N         25.7550   20.4020    9.3720 N.am   94  HIS94      -0.1973
     80  CA        26.4610   19.1590    9.2320 C.3    94  HIS94       0.1656
     81  C         25.6240   18.2030    8.3690 C.2    94  HIS94       0.2291
     82  O         24.3930   18.1430    8.4970 O.2    94  HIS94      -0.2864
     83  CB        26.7170   18.4900   10.6380 C.3    94  HIS94       0.0771
     84  CG        27.2000   19.4320   11.7220 C.ar   94  HIS94       0.0820
     85  ND1       26.3670   19.9130   12.7150 N.ar   94  HIS94      -0.2267
     86  CD2       28.4380   19.9370   11.9980 C.ar   94  HIS94       0.1154
     87  CE1       27.0650   20.7070   13.5280 C.ar   94  HIS94       0.1986
     88  NE2       28.3290   20.7500   13.1190 N.ar   94  HIS94      -0.2212
     89  N         19.2890   22.4480    5.2890 N.3   117  ARG117     -0.1245
     90  CA        19.4210   23.4330    6.3580 C.3   117  ARG117      0.1563
     91  C         19.1330   24.8580    5.9080 C.2   117  ARG117      0.2260
     92  O         18.6930   25.6870    6.7240 O.2   117  ARG117     -0.2867
     93  CB        20.8140   23.3470    6.9980 C.3   117  ARG117      0.0307
     94  CG        21.0970   21.9960    7.7270 C.3   117  ARG117      0.0489
     95  CD        20.0490   21.7580    8.8430 C.3   117  ARG117      0.2205
     96  NE        20.2150   22.7300    9.9350 N.pl3 117  ARG117     -0.0865
     97  CZ        19.3060   23.0020   10.8750 C.cat 117  ARG117      0.5346
     98  NH1       18.1170   22.3870   10.8750 N.pl3 117  ARG117      0.1354
     99  NH2       19.5980   23.8800   11.8450 N.pl3 117  ARG117      0.1354
    100  N         16.5500   26.4970    8.3980 N.3   121  GLU121     -0.1245
    101  CA        16.9480   27.6710    9.1740 C.3   121  GLU121      0.1567
    102  C         16.3720   28.9620    8.5900 C.2   121  GLU121      0.2260
    103  O         15.8570   29.7830    9.3260 O.2   121  GLU121     -0.2867
    104  CB        18.4500   27.8130    9.1440 C.3   121  GLU121      0.0388
    105  CG        19.1720   26.7180    9.9380 C.3   121  GLU121      0.1160
    106  CD        20.6860   26.8880    9.9040 C.2   121  GLU121      0.3649
    107  OE1       21.1720   27.9890    9.5460 O.co2 121  GLU121     -0.2457
    108  OE2       21.3800   25.9010   10.2120 O.co2 121  GLU121     -0.2457
    109  N         33.5770   23.5730   18.6800 N.3   152  GLU152     -0.1245
    110  CA        33.5100   23.0380   17.3230 C.3   152  GLU152      0.1567
    111  C         34.8080   22.4100   16.9520 C.2   152  GLU152      0.2260
    112  O         35.8630   22.8270   17.4430 O.2   152  GLU152     -0.2867
    113  CB        33.2500   24.1660   16.3110 C.3   152  GLU152      0.0388
    114  CG        31.7360   24.4000   16.0850 C.3   152  GLU152      0.1160
    115  CD        31.0150   23.2190   15.3610 C.2   152  GLU152      0.3649
    116  OE1       31.5510   22.0820   15.1220 O.co2 152  GLU152     -0.2457
    117  OE2       29.8400   23.4270   15.0150 O.co2 152  GLU152     -0.2457
    118  N         35.8460   20.6290   13.1260 N.3   154  GLU154     -0.1245
    119  CA        35.2140   20.1870   11.8870 C.3   154  GLU154      0.1567
    120  C         36.1810   20.1210   10.7460 C.2   154  GLU154      0.2260
    121  O         37.1080   20.9340   10.6640 O.2   154  GLU154     -0.2867
    122  CB        34.1090   21.1620   11.4710 C.3   154  GLU154      0.0388
    123  CG        32.9400   21.2690   12.5000 C.3   154  GLU154      0.1160
    124  CD        31.8930   22.3000   12.1120 C.2   154  GLU154      0.3649
    125  OE1       32.2430   23.2280   11.2900 O.co2 154  GLU154     -0.2457
    126  OE2       30.7270   22.1350   12.6120 O.co2 154  GLU154     -0.2457
    127  N         16.4170   29.0830   15.2600 N.3   173  GLU173     -0.1245
    128  CA        17.7300   28.9970   14.6040 C.3   173  GLU173      0.1567
    129  C         18.3870   30.3670   14.4510 C.2   173  GLU173      0.2260
    130  O         19.6020   30.5320   14.6590 O.2   173  GLU173     -0.2867
    131  CB        17.5810   28.3900   13.1980 C.3   173  GLU173      0.0388
    132  CG        17.0940   26.9200   13.2000 C.3   173  GLU173      0.1160
    133  CD        18.1510   25.9350   13.6950 C.2   173  GLU173      0.3649
    134  OE1       19.3440   26.3280   13.8380 O.co2 173  GLU173     -0.2457
    135  OE2       17.7890   24.7600   13.9310 O.co2 173  GLU173     -0.2457
    136  N         35.1050   31.5170   12.5270 N.3   202  TRP202     -0.1241
    137  CA        35.3380   31.0480   11.1720 C.3   202  TRP202      0.1605
    138  C         34.8800   32.0640   10.1130 C.2   202  TRP202      0.2264
    139  O         35.3310   31.9960    8.9780 O.2   202  TRP202     -0.2867
    140  CB        34.7050   29.6910   10.8830 C.3   202  TRP202      0.0550
    141  CG        33.2290   29.5990   11.1250 C.ar  202  TRP202      0.0003
    142  CD1       32.2170   29.8070   10.2220 C.ar  202  TRP202      0.0946
    143  CD2       32.6090   29.2330   12.3610 C.ar  202  TRP202      0.0152
    144  NE1       31.0020   29.6090   10.8400 N.ar  202  TRP202     -0.2442
    145  CE2       31.2150   29.2630   12.1560 C.ar  202  TRP202      0.0810
    146  CE3       33.1070   28.9000   13.6320 C.ar  202  TRP202      0.0012
    147  CZ2       30.2970   28.9290   13.1740 C.ar  202  TRP202      0.0191
    148  CZ3       32.2000   28.5550   14.6590 C.ar  202  TRP202      0.0001
    149  CH2       30.8120   28.5880   14.4220 C.ar  202  TRP202      0.0015
@<TRIPOS>BOND
     1    89    90    1
     2    91    90    1
     3    91    92    2
     4    90    93    1
     5    93    94    1
     6    94    95    1
     7    81    82    2
     8    81    80    1
     9   100   101    1
    10   102   101    1
    11   102   103    2
    12    67    68    1
    13    95    96    1
    14    68    69    1
    15    68    71    1
    16   139   138    2
    17    76    75    2
    18   104   101    1
    19   104   105    1
    20    80    79    1
    21    80    83    1
    22    73    69   am
    23    73    74    1
    24    79    75   am
    25    75    74    1
    26    77    74    1
    27    77    78    1
    28    69    70    2
    29   107   106   ar
    30    71    72    1
    31   106   105    1
    32   106   108   ar
    33    96    97    2
    34   138   137    1
    35   142   144   ar
    36   142   141   ar
    37    83    84    1
    38   121   120    2
    39   120   119    1
    40   144   145   ar
    41    97    98    1
    42    97    99    1
    43   140   141    1
    44   140   137    1
    45   141   143   ar
    46   137   136    1
    47   125   124   ar
    48   122   119    1
    49   122   123    1
    50    84    86   ar
    51    84    85   ar
    52   119   118    1
    53    86    88   ar
    54   124   123    1
    55   124   126   ar
    56   145   143   ar
    57   145   147   ar
    58   143   146   ar
    59    85    87   ar
    60    11     9    1
    61    88    87   ar
    62    20    18   ar
    63    19    18   ar
    64   147   149   ar
    65   131   132    1
    66   131   128    1
    67   132   133    1
    68    18    17    1
    69   146   148   ar
    70   133   134   ar
    71   133   135   ar
    72     9     8    2
    73     9    10    1
    74     8     7    1
    75    17    16    1
    76    49    48    1
    77   149   148   ar
    78   129   128    1
    79   129   130    2
    80   128   127    1
    81    16    13    1
    82    40    41    1
    83    45    46    1
    84    45    44    1
    85   117   115   ar
    86   116   115   ar
    87     7     6    1
    88    14    13    1
    89    14    15    2
    90   115   114    1
    91    13    12    1
    92    41    44    1
    93    41    42    1
    94    46    47    1
    95    48    47    2
    96    48    50    1
    97    59    58    1
    98    29    28    1
    99    39    38   ar
   100    39    37   ar
   101   114   113    1
   102     6     5    1
   103    58    57    1
   104    38    36   ar
   105   113   110    1
   106    42    43    2
   107    57    56    1
   108     5     2    1
   109    27    28    1
   110    27    26    1
   111   111   110    1
   112   111   112    2
   113    37    35   ar
   114   110   109    1
   115     4     3    2
   116    26    25    1
   117    25    22    1
   118    56    55    1
   119    36    35   ar
   120     2     3    1
   121     2     1    1
   122    22    21    1
   123    22    23    1
   124    35    34    1
   125    65    64    1
   126    55    52    1
   127    63    62    2
   128    23    24    2
   129    64    66    1
   130    64    61    1
   131    34    31    1
   132    62    61    1
   133    52    51    1
   134    52    53    1
   135    30    31    1
   136    31    32    1
   137    61    60    1
   138    53    54    2
   139    32    33    2
