@<TRIPOS>MOLECULE
tmp/2pnzB00.pdb
 92 88 0 0 0
SMALL
GASTEIGER

@<TRIPOS>ATOM
      1  N        -49.2420    8.8270  -15.9720 N.3    59  SER59      -0.1217
      2  CA       -48.4210    9.4850  -14.9750 C.3    59  SER59       0.1889
      3  C        -49.3610    9.9360  -13.8550 C.2    59  SER59       0.2288
      4  O        -50.5660    9.6800  -13.8920 O.2    59  SER59      -0.2866
      5  CB       -47.7360   10.6900  -15.5790 C.3    59  SER59       0.2089
      6  OG       -48.7010   11.6820  -15.8260 O.3    59  SER59      -0.2183
      7  N        -50.8790   13.2520  -11.9520 N.3    61  GLY61      -0.1210
      8  CA       -50.9060   14.6930  -12.1160 C.3    61  GLY61       0.1956
      9  C        -52.0960   15.2990  -11.4370 C.2    61  GLY61       0.2612
     10  O        -52.8560   14.5930  -10.7920 O.2    61  GLY61      -0.2717
     11  N        -52.2300   16.6100  -11.5960 N.am   62  GLU62      -0.1966
     12  CA       -53.3420   17.3970  -11.0950 C.3    62  GLU62       0.1718
     13  C        -54.6160   17.1670  -11.8870 C.2    62  GLU62       0.2458
     14  O        -54.5770   17.2200  -13.0940 O.2    62  GLU62      -0.2730
     15  CB       -53.0210   18.8760  -11.2660 C.3    62  GLU62       0.0428
     16  CG       -51.7710   19.3680  -10.6060 C.3    62  GLU62       0.1163
     17  CD       -51.8380   20.8530  -10.3230 C.2    62  GLU62       0.3649
     18  OE1      -52.0370   21.6460  -11.2640 O.co2  62  GLU62      -0.2457
     19  OE2      -51.7120   21.2390   -9.1400 O.co2  62  GLU62      -0.2457
     20  N        -55.7780   16.9960  -11.2270 N.am   63  PRO63      -0.2716
     21  CA       -56.9630   16.9030  -12.0800 C.3    63  PRO63       0.1536
     22  C        -57.4120   18.3000  -12.5130 C.2    63  PRO63       0.2598
     23  O        -56.9300   19.3460  -11.9710 O.2    63  PRO63      -0.2715
     24  CB       -58.0070   16.2810  -11.1720 C.3    63  PRO63       0.0310
     25  CG       -57.6680   16.8490   -9.8160 C.3    63  PRO63       0.0237
     26  CD       -56.1300   16.9460   -9.7930 C.3    63  PRO63       0.0939
     27  N        -58.2860   18.3290  -13.5150 N.am   64  PHE64      -0.1961
     28  CA       -58.7840   19.5890  -14.0240 C.3    64  PHE64       0.1756
     29  C        -59.5300   20.2440  -12.8740 C.2    64  PHE64       0.2461
     30  O        -60.1840   19.5340  -12.0870 O.2    64  PHE64      -0.2730
     31  CB       -59.6920   19.3760  -15.2390 C.3    64  PHE64       0.0574
     32  CG       -58.9820   18.7820  -16.4220 C.ar   64  PHE64      -0.0200
     33  CD1      -58.0700   19.5400  -17.1570 C.ar   64  PHE64      -0.0042
     34  CD2      -59.1920   17.4570  -16.7730 C.ar   64  PHE64      -0.0042
     35  CE1      -57.4040   18.9730  -18.2460 C.ar   64  PHE64      -0.0003
     36  CE2      -58.5540   16.9020  -17.8610 C.ar   64  PHE64      -0.0003
     37  CZ       -57.6510   17.6500  -18.5940 C.ar   64  PHE64      -0.0000
     38  N        -59.4150   21.5760  -12.7380 N.am   65  PRO65      -0.2727
     39  CA       -60.1110   22.2560  -11.6370 C.3    65  PRO65       0.1402
     40  C        -61.6210   21.9310  -11.5840 C.2    65  PRO65       0.2269
     41  O        -62.1550   21.6590  -10.5140 O.2    65  PRO65      -0.2865
     42  CB       -59.8530   23.7450  -11.9170 C.3    65  PRO65       0.0296
     43  CG       -59.3240   23.8090  -13.3210 C.3    65  PRO65       0.0237
     44  CD       -58.6360   22.5150  -13.5580 C.3    65  PRO65       0.0939
     45  N        -57.4330   11.7050  -15.2800 N.3    72  VAL72      -0.1245
     46  CA       -57.4100   12.3170  -16.6040 C.3    72  VAL72       0.1561
     47  C        -57.2140   11.3030  -17.6910 C.2    72  VAL72       0.2260
     48  O        -56.4540   10.3400  -17.5280 O.2    72  VAL72      -0.2867
     49  CB       -56.3700   13.5250  -16.6980 C.3    72  VAL72       0.0252
     50  CG1      -56.4070   14.2080  -18.0760 C.3    72  VAL72       0.0019
     51  CG2      -56.6930   14.5650  -15.6660 C.3    72  VAL72       0.0019
     52  N        -56.6350   11.3680  -22.0210 N.3    74  THR74      -0.1218
     53  CA       -56.4380   12.2080  -23.1750 C.3    74  THR74       0.1862
     54  C        -56.0060   11.2800  -24.2820 C.2    74  THR74       0.2287
     55  O        -55.3310   10.3550  -24.0180 O.2    74  THR74      -0.2866
     56  CB       -55.4660   13.3280  -22.8350 C.3    74  THR74       0.1770
     57  OG1      -55.1800   14.0380  -24.0090 O.3    74  THR74      -0.2211
     58  CG2      -54.1900   12.7750  -22.2660 C.3    74  THR74       0.0375
     59  N        -54.8260   10.9090  -28.3550 N.3    76  ASN76      -0.1240
     60  CA       -54.2680   11.5860  -29.5010 C.3    76  ASN76       0.1653
     61  C        -54.0440   10.5380  -30.5660 C.2    76  ASN76       0.2266
     62  O        -53.6890    9.3830  -30.2600 O.2    76  ASN76      -0.2867
     63  CB       -53.0100   12.3160  -29.0720 C.3    76  ASN76       0.1155
     64  CG       -52.3750   13.0310  -30.1590 C.2    76  ASN76       0.2627
     65  OD1      -51.2850   12.6240  -30.6150 O.2    76  ASN76      -0.2716
     66  ND2      -52.9620   14.1410  -30.5870 N.am   76  ASN76      -0.0877
     67  N        -53.1610   10.0880  -14.5370 N.3   128  VAL128     -0.1245
     68  CA       -53.2900   10.6590  -15.8970 C.3   128  VAL128      0.1561
     69  C        -52.9450    9.6680  -16.9880 C.2   128  VAL128      0.2260
     70  O        -51.8490    9.1180  -17.0250 O.2   128  VAL128     -0.2867
     71  CB       -52.4830   12.0120  -15.9720 C.3   128  VAL128      0.0252
     72  CG1      -52.5140   12.5490  -17.3170 C.3   128  VAL128      0.0019
     73  CG2      -53.1370   12.9550  -15.0370 C.3   128  VAL128      0.0019
     74  N        -52.6710    8.7960  -20.9520 N.3   130  PHE130     -0.1241
     75  CA       -52.4950    9.1670  -22.3220 C.3   130  PHE130      0.1605
     76  C        -52.8170    8.0130  -23.2420 C.2   130  PHE130      0.2264
     77  O        -52.2080    6.9530  -23.1340 O.2   130  PHE130     -0.2867
     78  CB       -51.0650    9.6100  -22.4900 C.3   130  PHE130      0.0534
     79  CG       -50.7580   10.8560  -21.7650 C.ar  130  PHE130     -0.0203
     80  CD1      -50.2140   10.8230  -20.5020 C.ar  130  PHE130     -0.0042
     81  CD2      -51.0210   12.0930  -22.3400 C.ar  130  PHE130     -0.0042
     82  CE1      -49.9320   11.9950  -19.8380 C.ar  130  PHE130     -0.0003
     83  CE2      -50.7190   13.2540  -21.6490 C.ar  130  PHE130     -0.0003
     84  CZ       -50.1630   13.1920  -20.4330 C.ar  130  PHE130     -0.0000
     85  N        -52.1790    7.0760  -26.7550 N.3   132  ASP132     -0.1239
     86  CA       -51.5330    7.6670  -27.9020 C.3   132  ASP132      0.1674
     87  C        -51.6760    6.6570  -28.9560 C.2   132  ASP132      0.2266
     88  O        -51.2730    5.5140  -28.7720 O.2   132  ASP132     -0.2867
     89  CB       -50.0700    8.0420  -27.6360 C.3   132  ASP132      0.1410
     90  CG       -49.9690    9.1460  -26.6870 C.2   132  ASP132      0.3668
     91  OD1      -49.4660    8.8950  -25.5480 O.co2 132  ASP132     -0.2456
     92  OD2      -50.4530   10.2830  -27.0590 O.co2 132  ASP132     -0.2456
@<TRIPOS>BOND
     1    65    64    2
     2    66    64   am
     3    61    62    2
     4    61    60    1
     5    64    63    1
     6    60    63    1
     7    60    59    1
     8    87    88    2
     9    87    86    1
    10    86    89    1
    11    86    85    1
    12    89    90    1
    13    92    90   ar
    14    90    91   ar
    15    54    55    2
    16    54    53    1
    17    57    56    1
    18    76    77    2
    19    76    75    1
    20    53    56    1
    21    53    52    1
    22    56    58    1
    23    78    75    1
    24    78    79    1
    25    81    79   ar
    26    81    83   ar
    27    75    74    1
    28    79    80   ar
    29    83    84   ar
    30    80    82   ar
    31    84    82   ar
    32    37    35   ar
    33    37    36   ar
    34    35    33   ar
    35    50    49    1
    36    36    34   ar
    37    47    48    2
    38    47    46    1
    39    72    71    1
    40    33    32   ar
    41    70    69    2
    42    69    68    1
    43    34    32   ar
    44    49    46    1
    45    49    51    1
    46    46    45    1
    47    32    31    1
    48    71    68    1
    49    71    73    1
    50     1     2    1
    51    68    67    1
    52     6     5    1
    53     5     2    1
    54    31    28    1
    55     2     3    1
    56    28    27    1
    57    28    29    1
    58     4     3    2
    59    44    43    1
    60    44    38    1
    61    27    22   am
    62    43    42    1
    63    14    13    2
    64    29    38   am
    65    29    30    2
    66    38    39    1
    67    22    21    1
    68    22    23    2
    69     8     7    1
    70     8     9    1
    71    21    20    1
    72    21    24    1
    73    42    39    1
    74    13    20   am
    75    13    12    1
    76    39    40    1
    77    11     9   am
    78    11    12    1
    79    40    41    2
    80     9    10    2
    81    15    12    1
    82    15    16    1
    83    18    17   ar
    84    20    26    1
    85    24    25    1
    86    16    17    1
    87    17    19   ar
    88    25    26    1
