@<TRIPOS>MOLECULE
tmp/2pnzA00.pdb
 142 132 0 0 0
SMALL
GASTEIGER

@<TRIPOS>ATOM
      1  N        -40.1770    9.7160  -32.6570 N.3    73  MET73      -0.1245
      2  CA       -40.4940    8.7780  -31.6130 C.3    73  MET73       0.1570
      3  C        -41.9470    8.8540  -31.2260 C.2    73  MET73       0.2261
      4  O        -42.5020    9.9100  -31.1210 O.2    73  MET73      -0.2867
      5  CB       -39.6180    9.0200  -30.4090 C.3    73  MET73       0.0387
      6  CG       -38.1970    9.4200  -30.7600 C.3    73  MET73       0.0595
      7  SD       -37.1990    8.8810  -29.4190 S.3    73  MET73      -0.1393
      8  CE       -37.5890   10.3280  -28.4960 C.3    73  MET73       0.0692
      9  N        -40.8050    6.0400  -25.1930 N.3    78  VAL78      -0.1231
     10  CA       -39.8310    6.3940  -24.1690 C.3    78  VAL78       0.1692
     11  C        -40.5050    6.1360  -22.8150 C.2    78  VAL78       0.2592
     12  O        -41.7400    6.0180  -22.7480 O.2    78  VAL78      -0.2718
     13  CB       -39.3800    7.8650  -24.3660 C.3    78  VAL78       0.0266
     14  CG1      -38.3310    7.9470  -25.4770 C.3    78  VAL78       0.0020
     15  CG2      -40.5890    8.7690  -24.7610 C.3    78  VAL78       0.0020
     16  N        -39.7290    6.0100  -21.7460 N.am   79  GLU79      -0.1966
     17  CA       -40.2880    5.8570  -20.3850 C.3    79  GLU79       0.1733
     18  C        -41.1520    7.0340  -19.8850 C.2    79  GLU79       0.2616
     19  O        -42.1880    6.8340  -19.2730 O.2    79  GLU79      -0.2715
     20  CB       -39.1640    5.6420  -19.4020 C.3    79  GLU79       0.0429
     21  CG       -39.5870    4.8140  -18.1850 C.3    79  GLU79       0.1163
     22  CD       -38.7030    5.1030  -16.9520 C.2    79  GLU79       0.3649
     23  OE1      -39.2130    4.8930  -15.8140 O.co2  79  GLU79      -0.2457
     24  OE2      -37.5140    5.5420  -17.1280 O.co2  79  GLU79      -0.2457
     25  N        -40.6900    8.2530  -20.1010 N.am   80  GLU80      -0.1977
     26  CA       -41.5460    9.3940  -19.8610 C.3    80  GLU80       0.1602
     27  C        -42.2760    9.7460  -21.1600 C.2    80  GLU80       0.2287
     28  O        -41.6410   10.0510  -22.1630 O.2    80  GLU80      -0.2864
     29  CB       -40.7360   10.5870  -19.3380 C.3    80  GLU80       0.0415
     30  CG       -40.2800   10.4130  -17.8660 C.3    80  GLU80       0.1163
     31  CD       -41.4720   10.0940  -16.9560 C.2    80  GLU80       0.3649
     32  OE1      -42.3680   10.9850  -16.8090 O.co2  80  GLU80      -0.2457
     33  OE2      -41.5130    8.9300  -16.4420 O.co2  80  GLU80      -0.2457
     34  N        -43.5790   11.1620  -24.2180 N.3    82  LYS82      -0.1245
     35  CA       -43.0390   12.2450  -24.9910 C.3    82  LYS82       0.1561
     36  C        -44.2030   12.8630  -25.7240 C.2    82  LYS82       0.2260
     37  O        -44.9460   12.1750  -26.4270 O.2    82  LYS82      -0.2867
     38  CB       -42.0870   11.6500  -25.9930 C.3    82  LYS82       0.0271
     39  CG       -41.2950   12.6870  -26.7830 C.3    82  LYS82       0.0035
     40  CD       -40.6160   12.0730  -27.9850 C.3    82  LYS82       0.0206
     41  CE       -40.8900   12.9100  -29.2900 C.3    82  LYS82       0.1093
     42  NZ       -42.2710   12.6500  -29.9620 N.3    82  LYS82      -0.1314
     43  N        -38.7890   17.3720  -31.9960 N.3    87  ASP87      -0.1239
     44  CA       -38.0770   18.1640  -31.0740 C.3    87  ASP87       0.1674
     45  C        -36.7010   18.2220  -31.6630 C.2    87  ASP87       0.2266
     46  O        -36.4640   17.6390  -32.6780 O.2    87  ASP87      -0.2867
     47  CB       -38.1260   17.5770  -29.6250 C.3    87  ASP87       0.1410
     48  CG       -37.7610   16.0920  -29.5450 C.2    87  ASP87       0.3668
     49  OD1      -37.9060   15.4540  -28.4880 O.co2  87  ASP87      -0.2456
     50  OD2      -37.3520   15.5310  -30.5220 O.co2  87  ASP87      -0.2456
     51  N        -33.7590   17.1900  -30.7570 N.3    89  ARG89      -0.1245
     52  CA       -33.0740   15.9040  -30.9030 C.3    89  ARG89       0.1563
     53  C        -33.5660   15.1480  -32.1310 C.2    89  ARG89       0.2260
     54  O        -32.7480   14.6640  -32.8950 O.2    89  ARG89      -0.2867
     55  CB       -33.2430   15.0250  -29.6440 C.3    89  ARG89       0.0307
     56  CG       -32.4110   13.7530  -29.6990 C.3    89  ARG89       0.0489
     57  CD       -32.7490   12.7790  -28.6510 C.3    89  ARG89       0.2205
     58  NE       -33.7890   11.8890  -29.1500 N.pl3  89  ARG89      -0.0865
     59  CZ       -33.5780   10.6190  -29.4700 C.cat  89  ARG89       0.5346
     60  NH1      -34.5720    9.8820  -29.9220 N.pl3  89  ARG89       0.1354
     61  NH2      -32.3690   10.0830  -29.3290 N.pl3  89  ARG89       0.1354
     62  N        -37.9510    2.6040  -27.5530 N.3   124  ALA124     -0.1231
     63  CA       -36.7010    3.3280  -27.6240 C.3   124  ALA124      0.1694
     64  C        -35.9130    2.7620  -26.4830 C.2   124  ALA124      0.2592
     65  O        -36.5030    2.5400  -25.4080 O.2   124  ALA124     -0.2718
     66  CB       -36.9510    4.8310  -27.4230 C.3   124  ALA124      0.0304
     67  N        -34.6270    2.4690  -26.7040 N.am  125  ASP125     -0.1960
     68  CA       -33.8080    1.9300  -25.6270 C.3   125  ASP125      0.1840
     69  C        -32.3430    2.1390  -25.7960 C.2   125  ASP125      0.2622
     70  O        -31.6010    1.2140  -25.4180 O.2   125  ASP125     -0.2715
     71  CB       -33.9500    0.4310  -25.4480 C.3   125  ASP125      0.1450
     72  CG       -33.6210   -0.0150  -24.0280 C.2   125  ASP125      0.3671
     73  OD1      -34.0220    0.6550  -23.0760 O.co2 125  ASP125     -0.2456
     74  OD2      -33.0060   -1.0760  -23.8330 O.co2 125  ASP125     -0.2456
     75  N        -31.9690    3.3340  -26.2680 N.am  126  ALA126     -0.1963
     76  CA       -30.6260    3.6660  -26.7860 C.3   126  ALA126      0.1728
     77  C        -30.2610    2.9840  -28.0750 C.2   126  ALA126      0.2617
     78  O        -30.5650    1.7810  -28.3130 O.2   126  ALA126     -0.2715
     79  CB       -29.5250    3.4970  -25.7860 C.3   126  ALA126      0.0334
     80  N        -29.5830    3.7610  -28.8970 N.am  127  GLY127     -0.1940
     81  CA       -29.1970    3.3190  -30.2170 C.3   127  GLY127      0.2014
     82  C        -30.3200    3.3980  -31.2130 C.2   127  GLY127      0.2640
     83  O        -30.2910    2.6680  -32.1890 O.2   127  GLY127     -0.2714
     84  N        -31.3290    4.2530  -31.0010 N.am  128  THR128     -0.1936
     85  CA       -32.4330    4.2830  -31.9760 C.3   128  THR128      0.2028
     86  C        -32.0000    4.7960  -33.3400 C.2   128  THR128      0.2642
     87  O        -32.6190    4.4640  -34.3630 O.2   128  THR128     -0.2714
     88  CB       -33.6740    5.1620  -31.5500 C.3   128  THR128      0.1808
     89  OG1      -33.2600    6.5100  -31.4480 O.3   128  THR128     -0.2208
     90  CG2      -34.3310    4.7260  -30.2610 C.3   128  THR128      0.0379
     91  N        -30.9610    5.6000  -33.3930 N.am  129  ARG129     -0.1977
     92  CA       -30.6330    6.2300  -34.6480 C.3   129  ARG129      0.1597
     93  C        -29.8580    5.2700  -35.5780 C.2   129  ARG129      0.2287
     94  O        -30.1640    5.1480  -36.7590 O.2   129  ARG129     -0.2864
     95  CB       -29.9270    7.5750  -34.4250 C.3   129  ARG129      0.0334
     96  CG       -28.4270    7.5410  -34.2990 C.3   129  ARG129      0.0492
     97  CD       -27.9070    8.9220  -33.8860 C.3   129  ARG129      0.2205
     98  NE       -28.5360    9.3590  -32.6580 N.pl3 129  ARG129     -0.0865
     99  CZ       -28.1290   10.3840  -31.9230 C.cat 129  ARG129      0.5346
    100  NH1      -27.0410   11.0570  -32.2480 N.pl3 129  ARG129      0.1354
    101  NH2      -28.8100   10.7320  -30.8430 N.pl3 129  ARG129      0.1354
    102  N        -30.0630    1.7660  -22.8510 N.3   169  LYS169     -0.1245
    103  CA       -30.4290    3.0890  -22.2730 C.3   169  LYS169      0.1561
    104  C        -29.6560    3.4490  -21.0080 C.2   169  LYS169      0.2260
    105  O        -29.0390    4.5350  -20.8980 O.2   169  LYS169     -0.2867
    106  CB       -31.9260    3.2080  -21.9520 C.3   169  LYS169      0.0271
    107  CG       -32.3390    4.6370  -21.5330 C.3   169  LYS169      0.0035
    108  CD       -33.8310    4.6590  -21.1350 C.3   169  LYS169      0.0206
    109  CE       -34.0730    5.4620  -19.8530 C.3   169  LYS169      0.1093
    110  NZ       -35.2190    4.9230  -19.0820 N.3   169  LYS169     -0.1314
    111  N        -25.9920    4.1150  -21.6010 N.3   172  ASP172     -0.1225
    112  CA       -25.8370    5.4130  -22.2020 C.3   172  ASP172      0.1805
    113  C        -26.1680    6.5350  -21.1840 C.2   172  ASP172      0.2597
    114  O        -25.4590    7.5630  -21.0610 O.2   172  ASP172     -0.2718
    115  CB       -26.7150    5.5350  -23.4420 C.3   172  ASP172      0.1424
    116  CG       -26.4160    6.7710  -24.2120 C.2   172  ASP172      0.3668
    117  OD1      -25.2820    7.2900  -24.0600 O.co2 172  ASP172     -0.2456
    118  OD2      -27.3030    7.2360  -24.9500 O.co2 172  ASP172     -0.2456
    119  N        -27.2430    6.3530  -20.4470 N.am  173  ASN173     -0.1974
    120  CA       -27.5000    7.2760  -19.3440 C.3   173  ASN173      0.1688
    121  C        -26.3770    7.4550  -18.3360 C.2   173  ASN173      0.2292
    122  O        -26.0510    8.5850  -17.9570 O.2   173  ASN173     -0.2864
    123  CB       -28.8530    7.0110  -18.7160 C.3   173  ASN173      0.1181
    124  CG       -29.9920    7.4190  -19.6580 C.2   173  ASN173      0.2629
    125  OD1      -29.7380    7.8440  -20.8010 O.2   173  ASN173     -0.2716
    126  ND2      -31.2330    7.2990  -19.1970 N.am  173  ASN173     -0.0877
    127  N        -20.9390    8.0460  -26.1170 N.3   178  ASP178     -0.1239
    128  CA       -21.7060    7.2680  -27.0150 C.3   178  ASP178      0.1674
    129  C        -21.1910    7.6930  -28.4170 C.2   178  ASP178      0.2266
    130  O        -21.0120    8.9060  -28.7290 O.2   178  ASP178     -0.2867
    131  CB       -23.1710    7.6350  -26.8370 C.3   178  ASP178      0.1410
    132  CG       -24.1030    6.7430  -27.6340 C.2   178  ASP178      0.3668
    133  OD1      -25.2170    7.2130  -27.9180 O.co2 178  ASP178     -0.2456
    134  OD2      -23.7370    5.5910  -27.9840 O.co2 178  ASP178     -0.2456
    135  N        -20.9830   11.8180  -28.5570 N.3   196  ASP196     -0.1239
    136  CA       -21.5990   12.5510  -27.4640 C.3   196  ASP196      0.1674
    137  C        -20.8110   12.0740  -26.2650 C.2   196  ASP196      0.2266
    138  O        -20.7230   10.8520  -26.0230 O.2   196  ASP196     -0.2867
    139  CB       -23.0000   12.0200  -27.2950 C.3   196  ASP196      0.1410
    140  CG       -23.8610   12.9230  -26.4970 C.2   196  ASP196      0.3668
    141  OD1      -23.3570   13.9440  -25.9760 O.co2 196  ASP196     -0.2456
    142  OD2      -25.0770   12.6320  -26.3730 O.co2 196  ASP196     -0.2456
@<TRIPOS>BOND
     1    94    93    2
     2    93    92    1
     3    92    95    1
     4    92    91    1
     5    95    96    1
     6    87    86    2
     7    96    97    1
     8    97    98    1
     9    91    86   am
    10    86    85    1
    11    54    53    2
    12    46    45    2
    13    98    99    2
    14     1     2    1
    15   100    99    1
    16    83    82    2
    17    53    52    1
    18    43    44    1
    19    85    88    1
    20    85    84    1
    21    99   101    1
    22    45    44    1
    23     2     3    1
    24     2     5    1
    25    88    89    1
    26    88    90    1
    27     3     4    2
    28    82    84   am
    29    82    81    1
    30    44    47    1
    31    52    51    1
    32    52    55    1
    33     6     5    1
    34     6     7    1
    35    50    48   ar
    36    81    80    1
    37    42    41    1
    38    60    59    1
    39    56    55    1
    40    56    57    1
    41    47    48    1
    42    48    49   ar
    43    59    61    1
    44    59    58    2
    45     7     8    1
    46    41    40    1
    47    58    57    1
    48    80    77   am
    49   130   129    2
    50   135   136    1
    51   129   128    1
    52    78    77    2
    53    77    76    1
    54    40    39    1
    55   134   132   ar
    56   133   132   ar
    57   132   131    1
    58    63    62    1
    59    63    66    1
    60    63    64    1
    61   136   139    1
    62   136   137    1
    63   139   140    1
    64   128   131    1
    65   128   127    1
    66    76    75    1
    67    76    79    1
    68    39    38    1
    69    67    64   am
    70    67    68    1
    71   140   142   ar
    72   140   141   ar
    73    64    65    2
    74    37    36    2
    75    75    69   am
    76   137   138    2
    77    38    35    1
    78    69    68    1
    79    69    70    2
    80    36    35    1
    81    68    71    1
    82    14    13    1
    83    71    72    1
    84     9    10    1
    85    35    34    1
    86   118   116   ar
    87    15    13    1
    88    13    10    1
    89   116   117   ar
    90   116   115    1
    91    10    11    1
    92    72    74   ar
    93    72    73   ar
    94   115   112    1
    95   102   103    1
    96    11    12    2
    97    11    16   am
    98   103   106    1
    99   103   104    1
   100   112   111    1
   101   112   113    1
   102    28    27    2
   103   106   107    1
   104    16    17    1
   105   107   108    1
   106   113   114    2
   107   113   119   am
   108    27    26    1
   109   108   109    1
   110   104   105    2
   111   125   124    2
   112   119   120    1
   113    17    18    1
   114    17    20    1
   115    25    18   am
   116    25    26    1
   117    18    19    2
   118    26    29    1
   119   109   110    1
   120   124   126   am
   121   124   123    1
   122    20    21    1
   123   120   123    1
   124   120   121    1
   125    29    30    1
   126   121   122    2
   127    21    22    1
   128    30    31    1
   129    24    22   ar
   130    31    32   ar
   131    31    33   ar
   132    22    23   ar
