@<TRIPOS>MOLECULE
tmp/2po0A00.pdb
 142 132 0 0 0
SMALL
GASTEIGER

@<TRIPOS>ATOM
      1  N        -28.4900   29.8950   32.9890 N.3    73  MET73      -0.1245
      2  CA       -27.8320   30.5490   31.8710 C.3    73  MET73       0.1570
      3  C        -28.6480   31.7360   31.4590 C.2    73  MET73       0.2261
      4  O        -29.8210   31.6050   31.1100 O.2    73  MET73      -0.2867
      5  CB       -27.7140   29.5960   30.6770 C.3    73  MET73       0.0387
      6  CG       -27.3260   28.1770   31.0570 C.3    73  MET73       0.0595
      7  SD       -26.3060   27.4110   29.7800 S.3    73  MET73      -0.1393
      8  CE       -27.6660   26.9240   28.7910 C.3    73  MET73       0.0692
      9  N        -25.3790   32.2670   25.2880 N.3    78  VAL78      -0.1231
     10  CA       -25.2950   31.1830   24.3390 C.3    78  VAL78       0.1692
     11  C        -25.4330   31.7880   22.9410 C.2    78  VAL78       0.2592
     12  O        -25.8750   32.9370   22.8000 O.2    78  VAL78      -0.2718
     13  CB       -26.3140   30.0900   24.7100 C.3    78  VAL78       0.0266
     14  CG1      -25.7010   29.1600   25.8020 C.3    78  VAL78       0.0020
     15  CG2      -27.6330   30.6880   25.2110 C.3    78  VAL78       0.0020
     16  N        -24.9550   31.0820   21.9120 N.am   79  GLU79      -0.1966
     17  CA       -24.8650   31.6990   20.5820 C.3    79  GLU79       0.1733
     18  C        -26.2700   32.0010   20.0780 C.2    79  GLU79       0.2616
     19  O        -26.5500   33.1010   19.5790 O.2    79  GLU79      -0.2715
     20  CB       -24.0790   30.8140   19.6150 C.3    79  GLU79       0.0429
     21  CG       -24.0980   31.2570   18.1650 C.3    79  GLU79       0.1163
     22  CD       -24.1290   30.0550   17.1970 C.2    79  GLU79       0.3649
     23  OE1      -24.4090   30.2410   15.9830 O.co2  79  GLU79      -0.2457
     24  OE2      -23.8820   28.9050   17.6700 O.co2  79  GLU79      -0.2457
     25  N        -27.1700   31.0390   20.2580 N.am   80  GLU80      -0.1977
     26  CA       -28.5760   31.2730   19.9470 C.3    80  GLU80       0.1602
     27  C        -29.3760   31.5550   21.2320 C.2    80  GLU80       0.2287
     28  O        -29.4410   30.7380   22.1380 O.2    80  GLU80      -0.2864
     29  CB       -29.1700   30.1220   19.1010 C.3    80  GLU80       0.0415
     30  CG       -28.4120   29.8400   17.7440 C.3    80  GLU80       0.1163
     31  CD       -28.2670   31.0780   16.8230 C.2    80  GLU80       0.3649
     32  OE1      -29.2900   31.7630   16.5830 O.co2  80  GLU80      -0.2457
     33  OE2      -27.1280   31.3680   16.3310 O.co2  80  GLU80      -0.2457
     34  N        -31.2940   32.0290   24.4540 N.3    82  LYS82      -0.1245
     35  CA       -32.0000   31.0550   25.3050 C.3    82  LYS82       0.1561
     36  C        -33.2160   31.7630   25.9800 C.2    82  LYS82       0.2260
     37  O        -33.0470   32.7890   26.6180 O.2    82  LYS82      -0.2867
     38  CB       -30.9900   30.5970   26.3570 C.3    82  LYS82       0.0271
     39  CG       -31.3650   29.2970   27.0210 C.3    82  LYS82       0.0035
     40  CD       -30.5720   29.1240   28.3270 C.3    82  LYS82       0.0206
     41  CE       -31.4200   28.3760   29.4090 C.3    82  LYS82       0.1093
     42  NZ       -32.1720   29.4380   30.2490 N.3    82  LYS82      -0.1314
     43  N        -34.5110   24.8630   32.1600 N.3    87  ASP87      -0.1239
     44  CA       -34.9050   23.8330   31.2870 C.3    87  ASP87       0.1674
     45  C        -34.4070   22.5570   31.9270 C.2    87  ASP87       0.2266
     46  O        -33.7660   22.6040   32.9690 O.2    87  ASP87      -0.2867
     47  CB       -34.3280   24.0680   29.8540 C.3    87  ASP87       0.1410
     48  CG       -32.8090   24.2860   29.8100 C.2    87  ASP87       0.3668
     49  OD1      -32.3290   24.5370   28.6940 O.co2  87  ASP87      -0.2456
     50  OD2      -32.0710   24.2630   30.8020 O.co2  87  ASP87      -0.2456
     51  N        -32.0420   20.5260   31.0290 N.3    89  ARG89      -0.1245
     52  CA       -30.6120   20.5510   31.2270 C.3    89  ARG89       0.1563
     53  C        -30.2290   21.2620   32.5420 C.2    89  ARG89       0.2260
     54  O        -29.5970   20.6900   33.3580 O.2    89  ARG89      -0.2867
     55  CB       -29.8610   21.1920   30.0350 C.3    89  ARG89       0.0307
     56  CG       -28.3910   20.7710   29.9780 C.3    89  ARG89       0.0489
     57  CD       -27.4670   21.4800   28.9140 C.3    89  ARG89       0.2205
     58  NE       -27.2380   22.8730   29.3310 N.pl3  89  ARG89      -0.0865
     59  CZ       -26.0700   23.4150   29.6860 C.cat  89  ARG89       0.5346
     60  NH1      -26.0770   24.6660   30.0840 N.pl3  89  ARG89       0.1354
     61  NH2      -24.9290   22.7480   29.6740 N.pl3  89  ARG89       0.1354
     62  N        -21.3680   31.2300   28.0250 N.3   124  ALA124     -0.1231
     63  CA       -21.1190   29.8280   28.0790 C.3   124  ALA124      0.1694
     64  C        -20.2240   29.4190   26.9500 C.2   124  ALA124      0.2592
     65  O        -20.2120   30.0510   25.9490 O.2   124  ALA124     -0.2718
     66  CB       -22.3990   29.0840   28.0500 C.3   124  ALA124      0.0304
     67  N        -19.4510   28.3730   27.1380 N.am  125  ASP125     -0.1960
     68  CA       -18.5840   27.8740   26.1060 C.3   125  ASP125      0.1840
     69  C        -18.1740   26.4590   26.2450 C.2   125  ASP125      0.2622
     70  O        -17.2190   26.0720   25.6520 O.2   125  ASP125     -0.2715
     71  CB       -17.3560   28.7420   25.9090 C.3   125  ASP125      0.1450
     72  CG       -16.8810   28.7610   24.4840 C.2   125  ASP125      0.3671
     73  OD1      -15.7600   28.3870   24.2360 O.co2 125  ASP125     -0.2456
     74  OD2      -17.6090   29.1520   23.5910 O.co2 125  ASP125     -0.2456
     75  N        -18.9070   25.6820   27.0110 N.am  126  ALA126     -0.1963
     76  CA       -18.4710   24.3760   27.4230 C.3   126  ALA126      0.1728
     77  C        -17.6550   24.3800   28.6910 C.2   126  ALA126      0.2617
     78  O        -16.9060   25.2480   28.9270 O.2   126  ALA126     -0.2715
     79  CB       -17.7750   23.7060   26.3520 C.3   126  ALA126      0.0334
     80  N        -17.8780   23.4070   29.5320 N.am  127  GLY127     -0.1940
     81  CA       -17.3800   23.4520   30.8750 C.3   127  GLY127      0.2014
     82  C        -18.0280   24.3670   31.8730 C.2   127  GLY127      0.2640
     83  O        -17.4570   24.6680   32.8630 O.2   127  GLY127     -0.2714
     84  N        -19.2470   24.7760   31.6190 N.am  128  THR128     -0.1936
     85  CA       -19.9250   25.6400   32.5550 C.3   128  THR128      0.2028
     86  C        -20.2320   24.9440   33.8800 C.2   128  THR128      0.2642
     87  O        -20.3100   25.6020   34.8950 O.2   128  THR128     -0.2714
     88  CB       -21.2580   26.2040   32.0120 C.3   128  THR128      0.1808
     89  OG1      -22.1230   25.1080   31.7510 O.3   128  THR128     -0.2208
     90  CG2      -21.1120   27.0450   30.7530 C.3   128  THR128      0.0379
     91  N        -20.4490   23.6260   33.8890 N.am  129  ARG129     -0.1977
     92  CA       -20.9010   23.0030   35.1430 C.3   129  ARG129      0.1597
     93  C        -19.6980   22.8810   36.0430 C.2   129  ARG129      0.2287
     94  O        -19.7670   23.2470   37.2160 O.2   129  ARG129     -0.2864
     95  CB       -21.6390   21.6720   34.9570 C.3   129  ARG129      0.0334
     96  CG       -20.7420   20.4470   34.8690 C.3   129  ARG129      0.0492
     97  CD       -21.5430   19.2970   34.3710 C.3   129  ARG129      0.2205
     98  NE       -22.1590   19.5930   33.0870 N.pl3 129  ARG129     -0.0865
     99  CZ       -23.1490   18.8810   32.5550 C.cat 129  ARG129      0.5346
    100  NH1      -23.6470   17.8670   33.2410 N.pl3 129  ARG129      0.1354
    101  NH2      -23.6920   19.2280   31.3930 N.pl3 129  ARG129      0.1354
    102  N        -16.5030   24.6750   23.2350 N.3   169  LYS169     -0.1245
    103  CA       -17.8150   24.4250   22.6310 C.3   169  LYS169      0.1561
    104  C        -17.6680   23.4490   21.4420 C.2   169  LYS169      0.2260
    105  O        -18.3170   22.3910   21.4280 O.2   169  LYS169     -0.2867
    106  CB       -18.4370   25.7530   22.1790 C.3   169  LYS169      0.0271
    107  CG       -19.9000   25.7590   21.8970 C.3   169  LYS169      0.0035
    108  CD       -20.2320   27.0220   21.1190 C.3   169  LYS169      0.0206
    109  CE       -21.5850   26.8980   20.4170 C.3   169  LYS169      0.1093
    110  NZ       -21.5280   27.5750   19.0650 N.3   169  LYS169     -0.1314
    111  N        -16.6530   19.9420   22.3310 N.3   172  ASP172     -0.1225
    112  CA       -17.7510   19.2730   22.9590 C.3   172  ASP172      0.1805
    113  C        -18.8420   18.9580   21.9460 C.2   172  ASP172      0.2597
    114  O        -19.3240   17.8050   21.8460 O.2   172  ASP172     -0.2718
    115  CB       -18.3670   20.0560   24.0650 C.3   172  ASP172      0.1424
    116  CG       -19.3390   19.2190   24.7760 C.2   172  ASP172      0.3668
    117  OD1      -19.5520   18.1070   24.2150 O.co2 172  ASP172     -0.2456
    118  OD2      -19.8530   19.6010   25.8550 O.co2 172  ASP172     -0.2456
    119  N        -19.2210   19.9610   21.1630 N.am  173  ASN173     -0.1974
    120  CA       -20.2670   19.7180   20.2260 C.3   173  ASN173      0.1688
    121  C        -19.9390   18.5440   19.3530 C.2   173  ASN173      0.2292
    122  O        -20.7270   17.6050   19.2550 O.2   173  ASN173     -0.2864
    123  CB       -20.6030   20.9770   19.4490 C.3   173  ASN173      0.1181
    124  CG       -21.2940   22.0000   20.3320 C.2   173  ASN173      0.2629
    125  OD1      -21.5300   21.7460   21.5590 O.2   173  ASN173     -0.2716
    126  ND2      -21.5820   23.1750   19.7560 N.am  173  ASN173     -0.0877
    127  N        -17.6830   13.6420   26.6600 N.3   178  ASP178     -0.1239
    128  CA       -17.4410   14.7110   27.5740 C.3   178  ASP178      0.1674
    129  C        -17.5830   14.0800   28.9720 C.2   178  ASP178      0.2266
    130  O        -18.6260   13.5220   29.3070 O.2   178  ASP178     -0.2867
    131  CB       -18.5140   15.7730   27.3300 C.3   178  ASP178      0.1410
    132  CG       -18.3520   17.0320   28.1730 C.2   178  ASP178      0.3668
    133  OD1      -19.3560   17.8010   28.1720 O.co2 178  ASP178     -0.2456
    134  OD2      -17.3010   17.3020   28.8010 O.co2 178  ASP178     -0.2456
    135  N        -20.9430   11.5720   28.8850 N.3   196  ASP196     -0.1239
    136  CA       -21.9180   11.7870   27.8680 C.3   196  ASP196      0.1674
    137  C        -21.1170   11.3850   26.6570 C.2   196  ASP196      0.2266
    138  O        -20.0760   11.9410   26.4430 O.2   196  ASP196     -0.2867
    139  CB       -22.1810   13.2930   27.8230 C.3   196  ASP196      0.1410
    140  CG       -23.3400   13.5980   27.0790 C.2   196  ASP196      0.3668
    141  OD1      -24.0020   12.6060   26.6950 O.co2 196  ASP196     -0.2456
    142  OD2      -23.6470   14.8140   26.8560 O.co2 196  ASP196     -0.2456
@<TRIPOS>BOND
     1    23    22   ar
     2    33    31   ar
     3    32    31   ar
     4    31    30    1
     5    22    24   ar
     6    22    21    1
     7    30    29    1
     8    21    20    1
     9   110   109    1
    10    29    26    1
    11   122   121    2
    12   121   120    1
    13   123   120    1
    14   123   124    1
    15    19    18    2
    16    20    17    1
    17   126   124   am
    18    26    25    1
    19    26    27    1
    20    18    25   am
    21    18    17    1
    22   120   119    1
    23   124   125    2
    24   109   108    1
    25    17    16    1
    26   108   107    1
    27   119   113   am
    28    27    28    2
    29   105   104    2
    30   104   103    1
    31   114   113    2
    32   107   106    1
    33    16    11   am
    34   113   112    1
    35   106   103    1
    36   111   112    1
    37   103   102    1
    38    12    11    2
    39    11    10    1
    40   112   115    1
    41    74    72   ar
    42   115   116    1
    43   117   116   ar
    44    73    72   ar
    45    10    13    1
    46    10     9    1
    47    34    35    1
    48    72    71    1
    49    13    15    1
    50    13    14    1
    51   116   118   ar
    52    35    36    1
    53    35    38    1
    54    70    69    2
    55    71    68    1
    56    65    64    2
    57    36    37    2
    58    68    69    1
    59    68    67    1
    60    69    75   am
    61    79    76    1
    62    38    39    1
    63   138   137    2
    64   137   136    1
    65   127   128    1
    66   141   140   ar
    67   142   140   ar
    68    64    67   am
    69    64    63    1
    70    75    76    1
    71    39    40    1
    72   140   139    1
    73   131   128    1
    74   131   132    1
    75    76    77    1
    76   128   129    1
    77   139   136    1
    78   136   135    1
    79    62    63    1
    80    66    63    1
    81   133   132   ar
    82   132   134   ar
    83    40    41    1
    84    77    78    2
    85    77    80   am
    86    49    48   ar
    87     8     7    1
    88    57    58    1
    89    57    56    1
    90   129   130    2
    91    58    59    2
    92    41    42    1
    93    80    81    1
    94    61    59    1
    95    59    60    1
    96     7     6    1
    97    48    47    1
    98    48    50   ar
    99    47    44    1
   100    56    55    1
   101    55    52    1
   102     5     6    1
   103     5     2    1
   104    90    88    1
   105    81    82    1
   106    51    52    1
   107     4     3    2
   108    52    53    1
   109    44    45    1
   110    44    43    1
   111   101    99    1
   112     3     2    1
   113    84    82   am
   114    84    85    1
   115    89    88    1
   116     2     1    1
   117    82    83    2
   118    45    46    2
   119    88    85    1
   120    53    54    2
   121    85    86    1
   122    99    98    2
   123    99   100    1
   124    98    97    1
   125    86    91   am
   126    86    87    2
   127    91    92    1
   128    97    96    1
   129    96    95    1
   130    95    92    1
   131    92    93    1
   132    93    94    2
