@<TRIPOS>MOLECULE
tmp/2po3A00.pdb
 231 224 0 0 0
SMALL
GASTEIGER

@<TRIPOS>ATOM
      1  N         -0.2620   -9.0590  -40.7100 N.3    20  LEU20      -0.1231
      2  CA         1.0950   -8.5470  -40.7290 C.3    20  LEU20       0.1693
      3  C          2.0490   -9.3800  -41.5280 C.2    20  LEU20       0.2592
      4  O          2.1610  -10.5700  -41.2780 O.2    20  LEU20      -0.2718
      5  CB         1.6900   -8.6120  -39.3120 C.3    20  LEU20       0.0284
      6  CG         1.2560   -7.5120  -38.3660 C.3    20  LEU20       0.0019
      7  CD1        1.6690   -7.9540  -36.9640 C.3    20  LEU20       0.0001
      8  CD2        2.0260   -6.2460  -38.7280 C.3    20  LEU20       0.0001
      9  N          2.7650   -8.7580  -42.4520 N.am   21  VAL21      -0.1966
     10  CA         3.7290   -9.5130  -43.1700 C.3    21  VAL21       0.1727
     11  C          4.7430   -9.8340  -42.0650 C.2    21  VAL21       0.2617
     12  O          4.9760   -9.0360  -41.1510 O.2    21  VAL21      -0.2715
     13  CB         4.3480   -8.7190  -44.3470 C.3    21  VAL21       0.0290
     14  CG1        4.7830   -7.3490  -43.8420 C.3    21  VAL21       0.0023
     15  CG2        5.5820   -9.4260  -44.9230 C.3    21  VAL21       0.0023
     16  N          5.3380  -11.0120  -42.0840 N.am   22  GLY22      -0.1940
     17  CA         6.3340  -11.3240  -41.0500 C.3    22  GLY22       0.2014
     18  C          5.8200  -12.0980  -39.8500 C.2    22  GLY22       0.2639
     19  O          6.5860  -12.5310  -38.9720 O.2    22  GLY22      -0.2714
     20  N          4.5110  -12.2640  -39.8040 N.am   23  ARG23      -0.1963
     21  CA         3.9800  -12.9830  -38.6830 C.3    23  ARG23       0.1714
     22  C          4.5550  -14.3610  -38.6360 C.2    23  ARG23       0.2458
     23  O          4.4570  -15.0910  -39.6250 O.2    23  ARG23      -0.2730
     24  CB         2.4680  -13.0360  -38.6650 C.3    23  ARG23       0.0347
     25  CG         2.0250  -12.8010  -37.2330 C.3    23  ARG23       0.0492
     26  CD         0.6530  -13.3320  -36.9500 C.3    23  ARG23       0.2205
     27  NE        -0.3780  -12.3340  -37.1600 N.pl3  23  ARG23      -0.0865
     28  CZ        -0.5790  -11.3010  -36.3600 C.cat  23  ARG23       0.5346
     29  NH1        0.1700  -11.0760  -35.2820 N.pl3  23  ARG23       0.1354
     30  NH2       -1.5620  -10.4640  -36.6680 N.pl3  23  ARG23       0.1354
     31  N          5.1540  -14.7030  -37.4950 N.am   24  PRO24      -0.2727
     32  CA         5.7470  -16.0300  -37.3900 C.3    24  PRO24       0.1402
     33  C          4.6620  -17.1140  -37.5600 C.2    24  PRO24       0.2269
     34  O          3.5370  -16.9720  -37.0640 O.2    24  PRO24      -0.2865
     35  CB         6.4660  -16.0590  -36.0160 C.3    24  PRO24       0.0296
     36  CG         6.2280  -14.7000  -35.3530 C.3    24  PRO24       0.0237
     37  CD         5.1400  -14.0030  -36.1720 C.3    24  PRO24       0.0939
     38  N         22.5290  -15.5730  -35.4510 N.3    73  ASN73      -0.1225
     39  CA        21.7270  -14.8830  -36.4720 C.3    73  ASN73       0.1785
     40  C         22.4610  -14.9210  -37.8080 C.2    73  ASN73       0.2597
     41  O         23.6460  -15.2200  -37.8340 O.2    73  ASN73      -0.2718
     42  CB        21.2260  -13.5190  -36.0480 C.3    73  ASN73       0.1169
     43  CG        22.3990  -12.6590  -35.7030 C.2    73  ASN73       0.2627
     44  OD1       23.3390  -12.5310  -36.4890 O.2    73  ASN73      -0.2716
     45  ND2       22.3510  -12.0900  -34.5210 N.am   73  ASN73      -0.0877
     46  N         21.8190  -14.6790  -38.9330 N.am   74  ALA74      -0.1966
     47  CA        22.5400  -14.7780  -40.2000 C.3    74  ALA74       0.1728
     48  C         23.5810  -13.7070  -40.4120 C.2    74  ALA74       0.2616
     49  O         24.5910  -13.8850  -41.0940 O.2    74  ALA74      -0.2715
     50  CB        21.5300  -14.6800  -41.3570 C.3    74  ALA74       0.0334
     51  N         23.3170  -12.5440  -39.8490 N.am   75  THR75      -0.1951
     52  CA        24.2800  -11.4870  -40.0430 C.3    75  THR75       0.1897
     53  C         25.6310  -11.9710  -39.5030 C.2    75  THR75       0.2313
     54  O         26.6610  -11.8400  -40.1650 O.2    75  THR75      -0.2863
     55  CB        23.7660  -10.1850  -39.3780 C.3    75  THR75       0.1794
     56  OG1       22.5350   -9.8530  -39.9800 O.3    75  THR75      -0.2208
     57  CG2       24.7190   -9.0140  -39.6170 C.3    75  THR75       0.0378
     58  N         27.3690  -14.1200  -41.7920 N.3    78  LEU78      -0.1245
     59  CA        28.1320  -13.5340  -42.8870 C.3    78  LEU78       0.1561
     60  C         29.5210  -13.1100  -42.4540 C.2    78  LEU78       0.2260
     61  O         30.4830  -13.2740  -43.1970 O.2    78  LEU78      -0.2867
     62  CB        27.4840  -12.4080  -43.7150 C.3    78  LEU78       0.0270
     63  CG        26.1480  -12.7210  -44.3690 C.3    78  LEU78       0.0019
     64  CD1       25.3990  -11.3880  -44.4380 C.3    78  LEU78       0.0001
     65  CD2       26.3600  -13.2400  -45.8000 C.3    78  LEU78       0.0001
     66  N         18.8750   -5.5660  -51.8440 N.3    97  THR97      -0.1203
     67  CA        18.8220   -6.5270  -50.7540 C.3    97  THR97       0.1994
     68  C         18.5690   -5.8060  -49.4340 C.2    97  THR97       0.2617
     69  O         18.4630   -4.5820  -49.3810 O.2    97  THR97      -0.2717
     70  CB        20.0600   -7.4340  -50.6690 C.3    97  THR97       0.1784
     71  OG1       19.9800   -8.2800  -49.5290 O.3    97  THR97      -0.2211
     72  CG2       21.2650   -6.5250  -50.5290 C.3    97  THR97       0.0376
     73  N         18.4630   -6.5980  -48.3690 N.am   98  PHE98      -0.1975
     74  CA        18.2420   -6.0970  -47.0430 C.3    98  PHE98       0.1639
     75  C         19.5700   -5.5300  -46.5590 C.2    98  PHE98       0.2290
     76  O         20.6690   -6.0370  -46.9040 O.2    98  PHE98      -0.2864
     77  CB        17.7830   -7.2340  -46.1310 C.3    98  PHE98       0.0560
     78  CG        17.4540   -6.8050  -44.7270 C.ar   98  PHE98      -0.0200
     79  CD1       16.4340   -5.8870  -44.4860 C.ar   98  PHE98      -0.0042
     80  CD2       18.1560   -7.3430  -43.6440 C.ar   98  PHE98      -0.0042
     81  CE1       16.0660   -5.5210  -43.1890 C.ar   98  PHE98      -0.0003
     82  CE2       17.8200   -6.9730  -42.3430 C.ar   98  PHE98      -0.0003
     83  CZ        16.7880   -6.0600  -42.1220 C.ar   98  PHE98      -0.0000
     84  N         21.2580   -5.8270  -44.0600 N.3   100  ALA100     -0.1231
     85  CA        22.2540   -6.7040  -43.4690 C.3   100  ALA100      0.1694
     86  C         23.3400   -7.1660  -44.4300 C.2   100  ALA100      0.2592
     87  O         24.4530   -7.3640  -43.9720 O.2   100  ALA100     -0.2718
     88  CB        21.6140   -7.9440  -42.8800 C.3   100  ALA100      0.0304
     89  N         23.0480   -7.3790  -45.7320 N.am  101  THR101     -0.1953
     90  CA        24.1040   -7.8570  -46.6150 C.3   101  THR101      0.1897
     91  C         25.3700   -7.0020  -46.5950 C.2   101  THR101      0.2313
     92  O         26.4690   -7.4940  -46.3210 O.2   101  THR101     -0.2863
     93  CB        23.5600   -8.1660  -48.0140 C.3   101  THR101      0.1794
     94  OG1       22.2890   -8.7570  -47.8270 O.3   101  THR101     -0.2208
     95  CG2       24.5110   -9.0640  -48.8150 C.3   101  THR101      0.0378
     96  N         22.7340  -12.4440  -53.8050 N.3   143  VAL143     -0.1245
     97  CA        21.5930  -12.6070  -52.8980 C.3   143  VAL143      0.1561
     98  C         20.4820  -13.3730  -53.6130 C.2   143  VAL143      0.2260
     99  O         20.0370  -12.9410  -54.6730 O.2   143  VAL143     -0.2867
    100  CB        21.0400  -11.2960  -52.3020 C.3   143  VAL143      0.0252
    101  CG1       19.8960  -11.5640  -51.3270 C.3   143  VAL143      0.0019
    102  CG2       22.1240  -10.4960  -51.5690 C.3   143  VAL143      0.0019
    103  N         24.1480  -14.9010  -50.0040 N.3   169  ASP169     -0.1239
    104  CA        23.3490  -14.5720  -48.8730 C.3   169  ASP169      0.1674
    105  C         22.0480  -15.3240  -49.2200 C.2   169  ASP169      0.2266
    106  O         21.2370  -14.9190  -50.0880 O.2   169  ASP169     -0.2867
    107  CB        23.1860  -13.0700  -48.6330 C.3   169  ASP169      0.1410
    108  CG        22.1570  -12.7720  -47.5760 C.2   169  ASP169      0.3668
    109  OD1       21.3910  -13.6090  -47.1330 O.co2 169  ASP169     -0.2456
    110  OD2       22.1000  -11.5080  -47.2280 O.co2 169  ASP169     -0.2456
    111  N         19.5400  -15.9240  -47.1080 N.3   171  ALA171     -0.1231
    112  CA        18.5980  -15.6150  -46.0260 C.3   171  ALA171      0.1694
    113  C         17.1650  -16.0230  -46.2780 C.2   171  ALA171      0.2592
    114  O         16.5010  -16.5360  -45.3850 O.2   171  ALA171     -0.2718
    115  CB        18.5820  -14.1230  -45.7340 C.3   171  ALA171      0.0304
    116  N         16.7200  -15.7780  -47.5070 N.am  172  HIS172     -0.1976
    117  CA        15.3680  -16.0690  -47.9750 C.3   172  HIS172      0.1656
    118  C         15.2020  -17.3830  -48.7550 C.2   172  HIS172      0.2291
    119  O         14.0870  -17.7660  -49.1190 O.2   172  HIS172     -0.2864
    120  CB        15.0280  -15.0250  -49.0650 C.3   172  HIS172      0.0771
    121  CG        15.1690  -13.6120  -48.6310 C.ar  172  HIS172      0.0820
    122  ND1       15.1200  -12.5650  -49.5550 N.ar  172  HIS172     -0.2267
    123  CD2       15.3550  -13.1060  -47.3790 C.ar  172  HIS172      0.1154
    124  CE1       15.2800  -11.4580  -48.8610 C.ar  172  HIS172      0.1986
    125  NE2       15.4280  -11.7390  -47.5520 N.ar  172  HIS172     -0.2212
    126  N         19.1280  -17.8010  -42.8300 N.3   193  SER193     -0.1217
    127  CA        18.5990  -17.0580  -41.6940 C.3   193  SER193      0.1889
    128  C         17.3720  -17.8020  -41.1290 C.2   193  SER193      0.2288
    129  O         16.5770  -18.3360  -41.9240 O.2   193  SER193     -0.2866
    130  CB        18.1730  -15.6580  -42.0920 C.3   193  SER193      0.2089
    131  OG        17.6260  -14.9800  -40.9620 O.3   193  SER193     -0.2183
    132  N         15.3850  -16.1830  -38.5240 N.3   195  HIS195     -0.1226
    133  CA        14.7980  -15.1010  -37.7660 C.3   195  HIS195      0.1752
    134  C         13.3650  -15.4380  -37.5740 C.2   195  HIS195      0.2596
    135  O         12.8190  -16.1670  -38.4050 O.2   195  HIS195     -0.2718
    136  CB        14.8430  -13.7290  -38.5140 C.3   195  HIS195      0.0759
    137  CG        14.2810  -12.5920  -37.6900 C.ar  195  HIS195      0.0818
    138  ND1       13.0460  -12.0180  -37.9610 N.ar  195  HIS195     -0.2268
    139  CD2       14.8090  -11.9590  -36.5880 C.ar  195  HIS195      0.1154
    140  CE1       12.8550  -11.0640  -37.0390 C.ar  195  HIS195      0.1986
    141  NE2       13.9010  -10.9950  -36.1940 N.ar  195  HIS195     -0.2212
    142  N         12.7990  -14.8770  -36.5070 N.am  196  ALA196     -0.1966
    143  CA        11.3790  -15.0560  -36.1600 C.3   196  ALA196      0.1728
    144  C         10.4630  -14.8940  -37.3860 C.2   196  ALA196      0.2617
    145  O          9.4360  -15.5580  -37.5060 O.2   196  ALA196     -0.2715
    146  CB        10.9650  -14.0430  -35.0830 C.3   196  ALA196      0.0334
    147  N         10.8330  -13.9950  -38.3020 N.am  197  THR197     -0.1937
    148  CA        10.0520  -13.7140  -39.4910 C.3   197  THR197      0.2028
    149  C         10.2180  -14.6220  -40.7100 C.2   197  THR197      0.2642
    150  O          9.4800  -14.4950  -41.6960 O.2   197  THR197     -0.2714
    151  CB        10.2540  -12.2680  -39.9310 C.3   197  THR197      0.1808
    152  OG1       11.6170  -12.0730  -40.2210 O.3   197  THR197     -0.2208
    153  CG2        9.7940  -11.3240  -38.8300 C.3   197  THR197      0.0379
    154  N         11.1730  -15.5270  -40.7060 N.am  198  LYS198     -0.1977
    155  CA        11.3510  -16.3920  -41.8590 C.3   198  LYS198      0.1596
    156  C         10.3300  -17.5700  -41.8600 C.2   198  LYS198      0.2287
    157  O          9.5780  -17.7410  -40.9090 O.2   198  LYS198     -0.2864
    158  CB        12.8120  -16.8440  -41.8900 C.3   198  LYS198      0.0298
    159  CG        13.7850  -15.6750  -42.0320 C.3   198  LYS198      0.0038
    160  CD        13.5340  -14.9170  -43.3340 C.3   198  LYS198      0.0206
    161  CE        14.7190  -14.0960  -43.8220 C.3   198  LYS198      0.1093
    162  NZ        15.1870  -13.1240  -42.8170 N.3   198  LYS198     -0.1314
    163  N         15.7920  -16.4260  -33.1650 N.3   204  GLU204     -0.1231
    164  CA        16.8770  -15.7000  -33.7870 C.3   204  GLU204      0.1699
    165  C         17.9100  -16.7340  -34.1320 C.2   204  GLU204      0.2592
    166  O         18.2650  -17.5570  -33.2770 O.2   204  GLU204     -0.2718
    167  CB        17.5560  -14.6780  -32.8330 C.3   204  GLU204      0.0402
    168  CG        16.8510  -13.3070  -32.6660 C.3   204  GLU204      0.1161
    169  CD        17.1400  -12.2950  -33.7630 C.2   204  GLU204      0.3649
    170  OE1       18.0520  -12.3820  -34.5910 O.co2 204  GLU204     -0.2457
    171  OE2       16.2800  -11.3060  -33.7420 O.co2 204  GLU204     -0.2457
    172  N         18.4010  -16.7210  -35.3560 N.am  205  GLY205     -0.1957
    173  CA        19.4260  -17.6940  -35.6880 C.3   205  GLY205      0.1869
    174  C         19.7950  -17.6960  -37.1610 C.2   205  GLY205      0.2309
    175  O         19.1580  -17.0570  -38.0070 O.2   205  GLY205     -0.2863
    176  N          7.6520  -15.1090  -49.3260 N.3   296  TYR296     -0.1241
    177  CA         7.4790  -13.7310  -49.7520 C.3   296  TYR296      0.1605
    178  C          6.4470  -13.5320  -50.8550 C.2   296  TYR296      0.2264
    179  O          6.6720  -14.0130  -51.9490 O.2   296  TYR296     -0.2867
    180  CB         8.8230  -13.2380  -50.3510 C.3   296  TYR296      0.0534
    181  CG         9.8180  -12.8850  -49.2790 C.ar  296  TYR296     -0.0201
    182  CD1       11.0190  -13.5790  -49.1150 C.ar  296  TYR296     -0.0009
    183  CD2        9.5260  -11.8520  -48.3890 C.ar  296  TYR296     -0.0009
    184  CE1       11.9190  -13.2390  -48.1020 C.ar  296  TYR296      0.0417
    185  CE2       10.4130  -11.5060  -47.3680 C.ar  296  TYR296      0.0417
    186  CZ        11.6160  -12.1960  -47.2210 C.ar  296  TYR296      0.1957
    187  OH        12.4580  -11.8470  -46.1950 O.3   296  TYR296     -0.2866
    188  N         -0.6160   -4.7120  -42.6370 N.3   323  HIS323     -0.1241
    189  CA         0.7700   -4.3150  -42.6510 C.3   323  HIS323      0.1621
    190  C          1.6520   -5.0170  -43.6260 C.2   323  HIS323      0.2264
    191  O          1.9470   -6.1870  -43.4080 O.2   323  HIS323     -0.2867
    192  CB         1.3490   -4.4420  -41.2530 C.3   323  HIS323      0.0745
    193  CG         0.4300   -3.7530  -40.3090 C.ar  323  HIS323      0.0817
    194  ND1       -0.6520   -4.4230  -39.7420 N.ar  323  HIS323     -0.2268
    195  CD2        0.4320   -2.4770  -39.8580 C.ar  323  HIS323      0.1154
    196  CE1       -1.2770   -3.5530  -38.9590 C.ar  323  HIS323      0.1986
    197  NE2       -0.6500   -2.3800  -39.0120 N.ar  323  HIS323     -0.2212
    198  N          5.2700   -4.5370  -46.2970 N.3   325  ARG325     -0.1245
    199  CA         6.5920   -3.9770  -46.2380 C.3   325  ARG325      0.1563
    200  C          7.1480   -3.9260  -47.6410 C.2   325  ARG325      0.2260
    201  O          6.7900   -4.7380  -48.5010 O.2   325  ARG325     -0.2867
    202  CB         7.5170   -4.8560  -45.3680 C.3   325  ARG325      0.0307
    203  CG         6.9660   -5.2010  -43.9810 C.3   325  ARG325      0.0489
    204  CD         7.0530   -4.0210  -43.0180 C.3   325  ARG325      0.2205
    205  NE         8.2550   -3.2190  -43.2270 N.pl3 325  ARG325     -0.0865
    206  CZ         9.4100   -3.4820  -42.6100 C.cat 325  ARG325      0.5346
    207  NH1        9.5010   -4.5030  -41.7580 N.pl3 325  ARG325      0.1354
    208  NH2       10.4830   -2.7150  -42.8420 N.pl3 325  ARG325      0.1354
    209  N         10.0060   -4.7830  -49.4390 N.3   327  TYR327     -0.1227
    210  CA        11.2500   -5.5290  -49.4090 C.3   327  TYR327      0.1736
    211  C         11.7260   -5.7110  -50.8510 C.2   327  TYR327      0.2595
    212  O         11.1420   -6.5570  -51.5330 O.2   327  TYR327     -0.2718
    213  CB        10.9530   -6.9100  -48.7670 C.3   327  TYR327      0.0548
    214  CG        10.7340   -6.8650  -47.2920 C.ar  327  TYR327     -0.0200
    215  CD1        9.9130   -7.8110  -46.6700 C.ar  327  TYR327     -0.0009
    216  CD2       11.3330   -5.8950  -46.4830 C.ar  327  TYR327     -0.0009
    217  CE1        9.7190   -7.8090  -45.2860 C.ar  327  TYR327      0.0417
    218  CE2       11.1570   -5.8800  -45.0920 C.ar  327  TYR327      0.0417
    219  CZ        10.3430   -6.8460  -44.4870 C.ar  327  TYR327      0.1957
    220  OH        10.1330   -6.8650  -43.1140 O.3   327  TYR327     -0.2866
    221  N         12.7430   -4.9480  -51.3460 N.am  328  PHE328     -0.1976
    222  CA        13.4730   -3.9470  -50.5730 C.3   328  PHE328      0.1639
    223  C         13.5180   -2.5980  -51.2450 C.2   328  PHE328      0.2290
    224  O         13.5730   -2.4940  -52.4630 O.2   328  PHE328     -0.2864
    225  CB        14.9040   -4.3930  -50.2490 C.3   328  PHE328      0.0560
    226  CG        14.8120   -5.7350  -49.5780 C.ar  328  PHE328     -0.0200
    227  CD1       14.8600   -6.9000  -50.3410 C.ar  328  PHE328     -0.0042
    228  CD2       14.6340   -5.8390  -48.1980 C.ar  328  PHE328     -0.0042
    229  CE1       14.7130   -8.1420  -49.7230 C.ar  328  PHE328     -0.0003
    230  CE2       14.5010   -7.0770  -47.5650 C.ar  328  PHE328     -0.0003
    231  CZ        14.5090   -8.2280  -48.3420 C.ar  328  PHE328     -0.0000
@<TRIPOS>BOND
     1    99    98    2
     2    96    97    1
     3    98    97    1
     4    97   100    1
     5   224   223    2
     6   100   102    1
     7   100   101    1
     8   179   178    2
     9    66    67    1
    10   212   211    2
    11   221   211   am
    12   221   222    1
    13   223   222    1
    14   178   177    1
    15   211   210    1
    16    67    70    1
    17    67    68    1
    18    70    72    1
    19    70    71    1
    20   222   225    1
    21   180   177    1
    22   180   181    1
    23   227   229   ar
    24   227   226   ar
    25   225   226    1
    26   106   105    2
    27   103   104    1
    28   177   176    1
    29   229   231   ar
    30   226   228   ar
    31   122   124   ar
    32   122   121   ar
    33   209   210    1
    34    68    69    2
    35    68    73   am
    36   210   213    1
    37   181   182   ar
    38   181   183   ar
    39   105   104    1
    40   119   118    2
    41   182   184   ar
    42   120   121    1
    43   120   117    1
    44   104   107    1
    45   124   125   ar
    46    95    93    1
    47   213   214    1
    48   118   117    1
    49   107   108    1
    50   121   123   ar
    51   201   200    2
    52   183   185   ar
    53    73    74    1
    54   231   230   ar
    55   228   230   ar
    56   184   186   ar
    57    93    94    1
    58    93    90    1
    59   117   116    1
    60   200   199    1
    61   108   110   ar
    62   108   109   ar
    63   125   123   ar
    64   116   113   am
    65   185   186   ar
    66   214   215   ar
    67   214   216   ar
    68   186   187    1
    69   111   112    1
    70    74    75    1
    71    74    77    1
    72    76    75    2
    73   215   217   ar
    74    90    91    1
    75    90    89    1
    76    91    92    2
    77   216   218   ar
    78   198   199    1
    79   113   112    1
    80   113   114    2
    81   199   202    1
    82    77    78    1
    83   112   115    1
    84    65    63    1
    85    89    86   am
    86   202   203    1
    87   217   219   ar
    88   218   219   ar
    89    15    13    1
    90    78    79   ar
    91    78    80   ar
    92   219   220    1
    93    79    81   ar
    94    64    63    1
    95    86    87    2
    96    86    85    1
    97    63    62    1
    98    13    14    1
    99    13    10    1
   100    84    85    1
   101   203   204    1
   102   161   160    1
   103   161   162    1
   104    62    59    1
   105    80    82   ar
   106   190   191    2
   107   190   189    1
   108    85    88    1
   109   160   159    1
   110   205   204    1
   111   205   206    2
   112    61    60    2
   113    81    83   ar
   114    10     9    1
   115    10    11    1
   116    59    60    1
   117    59    58    1
   118   208   206    1
   119   126   127    1
   120   189   188    1
   121   189   192    1
   122   206   207    1
   123     9     3   am
   124    82    83   ar
   125   130   127    1
   126   130   131    1
   127    16    11   am
   128    16    17    1
   129    11    12    2
   130   159   158    1
   131   129   128    2
   132   158   155    1
   133   156   155    1
   134   156   157    2
   135   155   154    1
   136   150   149    2
   137   127   128    1
   138     3     4    2
   139     3     2    1
   140    50    47    1
   141   192   193    1
   142    49    48    2
   143    17    18    1
   144     2     1    1
   145     2     5    1
   146   149   154   am
   147   149   148    1
   148    48    47    1
   149    48    51   am
   150   193   195   ar
   151   193   194   ar
   152   152   151    1
   153    47    46    1
   154    54    53    2
   155    52    51    1
   156    52    53    1
   157    52    55    1
   158    56    55    1
   159   151   148    1
   160   151   153    1
   161   195   197   ar
   162    18    20   am
   163    18    19    2
   164    20    21    1
   165   194   196   ar
   166    23    22    2
   167    57    55    1
   168   148   147    1
   169     5     6    1
   170   197   196   ar
   171    46    40   am
   172     8     6    1
   173    21    24    1
   174    21    22    1
   175    24    25    1
   176    22    31   am
   177   132   133    1
   178   136   133    1
   179   136   137    1
   180   135   134    2
   181     6     7    1
   182   147   144   am
   183   175   174    2
   184   138   137   ar
   185   138   140   ar
   186    41    40    2
   187    40    39    1
   188   133   134    1
   189   137   139   ar
   190   134   142   am
   191    33    32    1
   192    33    34    2
   193   145   144    2
   194    31    32    1
   195    31    37    1
   196    32    35    1
   197   144   143    1
   198    25    26    1
   199   174   173    1
   200    27    26    1
   201    27    28    2
   202   140   141   ar
   203    30    28    1
   204   139   141   ar
   205   142   143    1
   206    44    43    2
   207    39    42    1
   208    39    38    1
   209    28    29    1
   210    37    36    1
   211   143   146    1
   212    42    43    1
   213    35    36    1
   214    43    45   am
   215   173   172    1
   216   172   165   am
   217   170   169   ar
   218   165   164    1
   219   165   166    2
   220   164   163    1
   221   164   167    1
   222   169   171   ar
   223   169   168    1
   224   167   168    1
