@<TRIPOS>MOLECULE
tmp/2po3A01.pdb
 92 91 0 0 0
SMALL
GASTEIGER

@<TRIPOS>ATOM
      1  N         20.9560  -30.1510  -18.6330 N.3    43  GLN43      -0.1231
      2  CA        21.7170  -29.0330  -18.1590 C.3    43  GLN43       0.1698
      3  C         22.7600  -28.6130  -19.1850 C.2    43  GLN43       0.2592
      4  O         23.7430  -27.9560  -18.8940 O.2    43  GLN43      -0.2718
      5  CB        22.2790  -29.2020  -16.7500 C.3    43  GLN43       0.0381
      6  CG        21.2400  -29.8080  -15.7930 C.3    43  GLN43       0.0905
      7  CD        21.8300  -30.0430  -14.4190 C.2    43  GLN43       0.2608
      8  OE1       22.2960  -31.1620  -14.0970 O.2    43  GLN43      -0.2717
      9  NE2       21.8630  -28.9530  -13.6490 N.am   43  GLN43      -0.0878
     10  N         22.5410  -29.0040  -20.4240 N.am   44  TRP44      -0.1962
     11  CA        23.4300  -28.6160  -21.4900 C.3    44  TRP44       0.1771
     12  C         22.5640  -27.6100  -22.2720 C.2    44  TRP44       0.2619
     13  O         21.6690  -28.0140  -23.0390 O.2    44  TRP44      -0.2715
     14  CB        23.7990  -29.8440  -22.3430 C.3    44  TRP44       0.0590
     15  CG        24.8930  -29.5410  -23.3020 C.ar   44  TRP44       0.0006
     16  CD1       25.3180  -28.3080  -23.6600 C.ar   44  TRP44       0.0946
     17  CD2       25.6950  -30.4700  -24.0310 C.ar   44  TRP44       0.0152
     18  NE1       26.3480  -28.3940  -24.5580 N.ar   44  TRP44      -0.2442
     19  CE2       26.6030  -29.7140  -24.8060 C.ar   44  TRP44       0.0810
     20  CE3       25.7380  -31.8640  -24.1050 C.ar   44  TRP44       0.0012
     21  CZ2       27.5460  -30.3250  -25.6400 C.ar   44  TRP44       0.0191
     22  CZ3       26.6790  -32.4580  -24.9230 C.ar   44  TRP44       0.0001
     23  CH2       27.5720  -31.7030  -25.6770 C.ar   44  TRP44       0.0015
     24  N         22.8030  -26.3080  -22.0280 N.am   45  LEU45      -0.1963
     25  CA        22.0610  -25.1990  -22.6430 C.3    45  LEU45       0.1728
     26  C         22.6490  -24.4900  -23.8850 C.2    45  LEU45       0.2617
     27  O         21.9080  -23.8820  -24.6730 O.2    45  LEU45      -0.2715
     28  CB        21.6130  -24.1690  -21.5830 C.3    45  LEU45       0.0311
     29  CG        21.1710  -24.8370  -20.2910 C.3    45  LEU45       0.0022
     30  CD1       21.0150  -23.7970  -19.1720 C.3    45  LEU45       0.0001
     31  CD2       19.8620  -25.6080  -20.5330 C.3    45  LEU45       0.0001
     32  N         23.9650  -24.5420  -24.0650 N.am   46  SER46      -0.1936
     33  CA        24.5850  -23.9010  -25.2150 C.3    46  SER46       0.2055
     34  C         25.9050  -24.5880  -25.5090 C.2    46  SER46       0.2643
     35  O         26.1380  -25.7040  -25.0240 O.2    46  SER46      -0.2714
     36  CB        24.7910  -22.3910  -25.0160 C.3    46  SER46       0.2130
     37  OG        25.0830  -21.8000  -26.2780 O.3    46  SER46      -0.2179
     38  N         26.7410  -23.8850  -26.2940 N.am   47  ASN47      -0.1971
     39  CA        28.0550  -24.3330  -26.6840 C.3    47  ASN47       0.1688
     40  C         28.0350  -25.7290  -27.2550 C.2    47  ASN47       0.2292
     41  O         28.3910  -26.6880  -26.5670 O.2    47  ASN47      -0.2864
     42  CB        29.0410  -24.3030  -25.4890 C.3    47  ASN47       0.1181
     43  CG        29.1990  -22.9200  -24.8620 C.2    47  ASN47       0.2629
     44  OD1       28.3770  -22.0130  -25.0890 O.2    47  ASN47      -0.2716
     45  ND2       30.2410  -22.7530  -24.0440 N.am   47  ASN47      -0.0877
     46  N         33.4620  -19.5980  -31.8720 N.3   224  ASN224     -0.1225
     47  CA        33.7200  -19.9460  -30.4740 C.3   224  ASN224      0.1785
     48  C         35.0790  -19.4660  -29.9700 C.2   224  ASN224      0.2597
     49  O         35.9660  -20.2380  -29.5870 O.2   224  ASN224     -0.2718
     50  CB        33.4470  -21.4190  -30.0800 C.3   224  ASN224      0.1169
     51  CG        33.6860  -21.7780  -28.6150 C.2   224  ASN224      0.2627
     52  OD1       33.1490  -21.1570  -27.6750 O.2   224  ASN224     -0.2716
     53  ND2       34.4560  -22.8460  -28.4180 N.am  224  ASN224     -0.0877
     54  N         35.2270  -18.1540  -29.9980 N.am  225  PHE225     -0.1976
     55  CA        36.4140  -17.4720  -29.5210 C.3   225  PHE225      0.1639
     56  C         37.7100  -17.8170  -30.2110 C.2   225  PHE225      0.2290
     57  O         38.7630  -17.4140  -29.7340 O.2   225  PHE225     -0.2864
     58  CB        36.4660  -17.5800  -27.9830 C.3   225  PHE225      0.0560
     59  CG        35.1570  -17.0980  -27.3720 C.ar  225  PHE225     -0.0200
     60  CD1       34.2090  -17.9870  -26.8600 C.ar  225  PHE225     -0.0042
     61  CD2       34.8640  -15.7320  -27.3200 C.ar  225  PHE225     -0.0042
     62  CE1       33.0080  -17.5220  -26.3120 C.ar  225  PHE225     -0.0003
     63  CE2       33.6700  -15.2590  -26.7710 C.ar  225  PHE225     -0.0003
     64  CZ        32.7300  -16.1550  -26.2650 C.ar  225  PHE225     -0.0000
     65  N         38.6700  -20.7150  -30.4880 N.3   227  PHE227     -0.1241
     66  CA        39.2110  -21.8980  -29.8260 C.3   227  PHE227      0.1605
     67  C         39.2430  -23.0900  -30.7300 C.2   227  PHE227      0.2264
     68  O         38.2820  -23.3810  -31.4620 O.2   227  PHE227     -0.2867
     69  CB        38.5430  -22.3440  -28.5150 C.3   227  PHE227      0.0534
     70  CG        38.5830  -21.2850  -27.4470 C.ar  227  PHE227     -0.0203
     71  CD1       37.5380  -21.1770  -26.5220 C.ar  227  PHE227     -0.0042
     72  CD2       39.6620  -20.3960  -27.3810 C.ar  227  PHE227     -0.0042
     73  CE1       37.5640  -20.2000  -25.5240 C.ar  227  PHE227     -0.0003
     74  CE2       39.7070  -19.4100  -26.3940 C.ar  227  PHE227     -0.0003
     75  CZ        38.6510  -19.3250  -25.4810 C.ar  227  PHE227     -0.0000
     76  N         31.7420  -14.6060  -30.5830 N.3   239  ASN239     -0.1240
     77  CA        30.7070  -15.4370  -30.0140 C.3   239  ASN239      0.1653
     78  C         29.5280  -15.3370  -30.9740 C.2   239  ASN239      0.2266
     79  O         28.8800  -14.2850  -31.0320 O.2   239  ASN239     -0.2867
     80  CB        30.2180  -14.9710  -28.6220 C.3   239  ASN239      0.1155
     81  CG        29.2450  -15.9670  -28.0080 C.2   239  ASN239      0.2627
     82  OD1       28.9300  -17.0140  -28.5970 O.2   239  ASN239     -0.2716
     83  ND2       28.8740  -15.7220  -26.7580 N.am  239  ASN239     -0.0877
     84  N         27.4930  -18.2420  -31.3100 N.3   241  LYS241     -0.1245
     85  CA        26.9370  -19.5240  -30.9080 C.3   241  LYS241      0.1561
     86  C         25.4130  -19.5690  -30.8340 C.2   241  LYS241      0.2260
     87  O         24.7750  -18.6140  -30.3980 O.2   241  LYS241     -0.2867
     88  CB        27.5090  -19.8790  -29.5210 C.3   241  LYS241      0.0271
     89  CG        28.6910  -20.8420  -29.5190 C.3   241  LYS241      0.0035
     90  CD        29.8170  -20.5160  -28.5390 C.3   241  LYS241      0.0206
     91  CE        29.3970  -20.3570  -27.0930 C.3   241  LYS241      0.1093
     92  NZ        29.2490  -18.9560  -26.6550 N.3   241  LYS241     -0.1314
@<TRIPOS>BOND
     1    46    47    1
     2    68    67    2
     3    84    85    1
     4    79    78    2
     5    78    77    1
     6    85    86    1
     7    85    88    1
     8    86    87    2
     9    67    66    1
    10    76    77    1
    11    65    66    1
    12    47    50    1
    13    47    48    1
    14    56    57    2
    15    56    55    1
    16    50    51    1
    17    77    80    1
    18    54    48   am
    19    54    55    1
    20    48    49    2
    21    66    69    1
    22    88    89    1
    23    55    58    1
    24    89    90    1
    25    80    81    1
    26    51    53   am
    27    51    52    2
    28    82    81    2
    29    90    91    1
    30    69    70    1
    31    81    83   am
    32    58    59    1
    33    70    72   ar
    34    70    71   ar
    35    72    74   ar
    36    59    61   ar
    37    59    60   ar
    38    61    63   ar
    39    40    39    1
    40    40    41    2
    41    91    92    1
    42    60    62   ar
    43    63    64   ar
    44    39    38    1
    45    39    42    1
    46    71    73   ar
    47    74    75   ar
    48    62    64   ar
    49    38    34   am
    50    37    36    1
    51    23    21   ar
    52    23    22   ar
    53    21    19   ar
    54    73    75   ar
    55    34    33    1
    56    34    35    2
    57    42    43    1
    58    33    36    1
    59    33    32    1
    60    44    43    2
    61    22    20   ar
    62    43    45   am
    63    19    18   ar
    64    19    17   ar
    65    27    26    2
    66    18    16   ar
    67    20    17   ar
    68    32    26   am
    69    17    15   ar
    70    26    25    1
    71    16    15   ar
    72    15    14    1
    73    13    12    2
    74    25    24    1
    75    25    28    1
    76    14    11    1
    77    12    24   am
    78    12    11    1
    79    28    29    1
    80    11    10    1
    81    31    29    1
    82    10     3   am
    83    29    30    1
    84     3     4    2
    85     3     2    1
    86     1     2    1
    87     2     5    1
    88     5     6    1
    89     6     7    1
    90     7     8    2
    91     7     9   am
