@<TRIPOS>MOLECULE
tmp/2pocB00.pdb
 99 92 0 0 0
SMALL
GASTEIGER

@<TRIPOS>ATOM
      1  N         49.6600  -40.4460   64.6060 N.3    55  CYS55      -0.1221
      2  CA        50.2630  -41.2900   63.5570 C.3    55  CYS55       0.1808
      3  C         49.1430  -41.7750   62.6360 C.2    55  CYS55       0.2602
      4  O         47.9800  -41.9150   63.0690 O.2    55  CYS55      -0.2717
      5  CB        50.9220  -42.5930   64.2070 C.3    55  CYS55       0.0970
      6  SG        52.2520  -42.1970   65.2810 S.3    55  CYS55      -0.0800
      7  N         49.4990  -42.1180   61.3920 N.am   56  GLY56      -0.1942
      8  CA        48.5800  -42.8190   60.4560 C.3    56  GLY56       0.2014
      9  C         47.1970  -42.1940   60.2940 C.2    56  GLY56       0.2640
     10  O         47.0630  -40.9700   60.0890 O.2    56  GLY56      -0.2714
     11  N         46.1490  -43.0080   60.4210 N.am   57  THR57      -0.1936
     12  CA        44.7800  -42.5390   60.2120 C.3    57  THR57       0.2028
     13  C         44.4140  -41.5060   61.2910 C.2    57  THR57       0.2642
     14  O         43.6360  -40.5790   61.0290 O.2    57  THR57      -0.2714
     15  CB        43.8210  -43.7830   60.2170 C.3    57  THR57       0.1808
     16  OG1       44.0680  -44.4740   58.9860 O.3    57  THR57      -0.2208
     17  CG2       42.3690  -43.3530   60.2440 C.3    57  THR57       0.0379
     18  N         44.9760  -41.6620   62.4890 N.am   58  SER58      -0.1949
     19  CA        44.7090  -40.6880   63.5640 C.3    58  SER58       0.1924
     20  C         45.2580  -39.2950   63.2060 C.2    58  SER58       0.2314
     21  O         44.6560  -38.2660   63.5480 O.2    58  SER58      -0.2863
     22  CB        45.2830  -41.1620   64.8980 C.3    58  SER58       0.2116
     23  OG        44.4560  -42.1790   65.4650 O.3    58  SER58      -0.2180
     24  N         45.9790  -37.8830   69.4410 N.3   101  VAL101     -0.1231
     25  CA        44.8460  -38.6570   68.9580 C.3   101  VAL101      0.1692
     26  C         45.3470  -40.0510   68.6480 C.2   101  VAL101      0.2593
     27  O         46.3570  -40.2030   67.9690 O.2   101  VAL101     -0.2718
     28  CB        44.2390  -37.9880   67.6920 C.3   101  VAL101      0.0266
     29  CG1       43.0210  -38.7690   67.2210 C.3   101  VAL101      0.0020
     30  CG2       43.8300  -36.5270   68.0050 C.3   101  VAL101      0.0020
     31  N         44.6720  -41.0800   69.1620 N.am  102  SER102     -0.1938
     32  CA        45.1220  -42.4480   68.9340 C.3   102  SER102      0.2055
     33  C         43.9470  -43.3840   69.2040 C.2   102  SER102      0.2643
     34  O         43.2510  -43.2530   70.2050 O.2   102  SER102     -0.2714
     35  CB        46.3090  -42.8120   69.8680 C.3   102  SER102      0.2130
     36  OG        46.7010  -44.1890   69.7490 O.3   102  SER102     -0.2179
     37  N         43.7820  -44.3550   68.3130 N.am  103  GLN103     -0.1963
     38  CA        42.7500  -45.3580   68.4760 C.3   103  GLN103      0.1733
     39  C         43.1880  -46.2840   69.6340 C.2   103  GLN103      0.2617
     40  O         42.4790  -46.4190   70.6020 O.2   103  GLN103     -0.2715
     41  CB        42.6640  -46.1810   67.1850 C.3   103  GLN103      0.0408
     42  CG        41.4720  -47.1180   67.1200 C.3   103  GLN103      0.0908
     43  CD        41.5780  -48.3720   68.0350 C.2   103  GLN103      0.2608
     44  OE1       40.6740  -48.6420   68.8210 O.2   103  GLN103     -0.2717
     45  NE2       42.6480  -49.1580   67.8840 N.am  103  GLN103     -0.0878
     46  N         44.3640  -46.8870   69.4960 N.am  104  SER104     -0.1950
     47  CA        44.9150  -47.8670   70.4420 C.3   104  SER104      0.1924
     48  C         45.4120  -47.2680   71.7450 C.2   104  SER104      0.2314
     49  O         45.3910  -47.9400   72.7800 O.2   104  SER104     -0.2863
     50  CB        46.0240  -48.6790   69.7790 C.3   104  SER104      0.2116
     51  OG        47.1930  -47.8910   69.6210 O.3   104  SER104     -0.2180
     52  N         50.4760  -46.6320   70.5190 N.3   107  THR107     -0.1218
     53  CA        51.4550  -46.5360   69.4280 C.3   107  THR107      0.1862
     54  C         52.7560  -45.9580   69.9290 C.2   107  THR107      0.2287
     55  O         52.7450  -44.9160   70.6030 O.2   107  THR107     -0.2866
     56  CB        50.8580  -45.6260   68.3710 C.3   107  THR107      0.1770
     57  OG1       49.6340  -46.2390   67.9610 O.3   107  THR107     -0.2211
     58  CG2       51.7590  -45.5430   67.1770 C.3   107  THR107      0.0375
     59  N         53.6400  -42.2260   69.2310 N.3   110  SER110     -0.1217
     60  CA        52.7350  -41.3290   69.9610 C.3   110  SER110      0.1889
     61  C         53.0690  -41.2410   71.4390 C.2   110  SER110      0.2288
     62  O         53.0620  -40.1560   72.0200 O.2   110  SER110     -0.2866
     63  CB        51.2730  -41.7310   69.7180 C.3   110  SER110      0.2089
     64  OG        50.9570  -41.5020   68.3520 O.3   110  SER110     -0.2183
     65  N         42.4050  -54.5830   60.5740 N.3   153  VAL153     -0.1231
     66  CA        43.8180  -54.1720   60.6910 C.3   153  VAL153      0.1692
     67  C         43.9650  -52.6430   60.5050 C.2   153  VAL153      0.2592
     68  O         44.9110  -52.0260   61.0190 O.2   153  VAL153     -0.2718
     69  CB        44.7740  -54.9350   59.7350 C.3   153  VAL153      0.0266
     70  CG1       44.5660  -56.4440   59.8510 C.3   153  VAL153      0.0020
     71  CG2       44.6200  -54.4580   58.2860 C.3   153  VAL153      0.0020
     72  N         43.0270  -52.0390   59.7810 N.am  154  ALA154     -0.1966
     73  CA        43.0660  -50.5850   59.5790 C.3   154  ALA154      0.1728
     74  C         41.8840  -49.9120   60.2450 C.2   154  ALA154      0.2616
     75  O         40.8400  -50.5280   60.4920 O.2   154  ALA154     -0.2715
     76  CB        43.1000  -50.2490   58.1190 C.3   154  ALA154      0.0334
     77  N         42.0410  -48.6240   60.5150 N.am  155  SER155     -0.1950
     78  CA        41.0240  -47.9080   61.2390 C.3   155  SER155      0.1924
     79  C         39.9130  -47.4060   60.3450 C.2   155  SER155      0.2314
     80  O         40.1690  -46.7310   59.3430 O.2   155  SER155     -0.2863
     81  CB        41.6780  -46.7290   61.9310 C.3   155  SER155      0.2116
     82  OG        40.7250  -46.1370   62.7740 O.3   155  SER155     -0.2180
     83  N         46.0370  -43.9670   52.1190 N.3   239  LEU239     -0.1245
     84  CA        46.5350  -44.8610   53.1600 C.3   239  LEU239      0.1561
     85  C         45.7390  -46.1770   53.1950 C.2   239  LEU239      0.2260
     86  O         46.3260  -47.2680   53.3260 O.2   239  LEU239     -0.2867
     87  CB        46.5130  -44.1710   54.5520 C.3   239  LEU239      0.0270
     88  CG        47.1650  -44.9680   55.7020 C.3   239  LEU239      0.0019
     89  CD1       48.6030  -45.4560   55.3960 C.3   239  LEU239      0.0001
     90  CD2       47.1470  -44.1960   57.0100 C.3   239  LEU239      0.0001
     91  N         47.4330  -49.7380   52.8530 N.3   243  GLU243     -0.1245
     92  CA        47.5050  -50.6210   54.0340 C.3   243  GLU243      0.1567
     93  C         46.6370  -51.8710   53.8990 C.2   243  GLU243      0.2260
     94  O         46.9850  -52.9230   54.3960 O.2   243  GLU243     -0.2867
     95  CB        47.1550  -49.8820   55.3490 C.3   243  GLU243      0.0388
     96  CG        48.3060  -49.0390   55.9290 C.3   243  GLU243      0.1160
     97  CD        48.0700  -48.4880   57.3530 C.2   243  GLU243      0.3649
     98  OE1       46.9160  -48.3070   57.7890 O.co2 243  GLU243     -0.2457
     99  OE2       49.0710  -48.2210   58.0470 O.co2 243  GLU243     -0.2457
@<TRIPOS>BOND
     1    83    84    1
     2    91    92    1
     3    84    85    1
     4    84    87    1
     5    85    86    2
     6    93    92    1
     7    93    94    2
     8    92    95    1
     9    87    88    1
    10    95    96    1
    11    89    88    1
    12    88    90    1
    13    96    97    1
    14    97    98   ar
    15    97    99   ar
    16    76    73    1
    17    71    69    1
    18    16    15    1
    19    80    79    2
    20    73    72    1
    21    73    74    1
    22    69    70    1
    23    69    66    1
    24    72    67   am
    25    10     9    2
    26    12    15    1
    27    12    11    1
    28    12    13    1
    29    15    17    1
    30    74    75    2
    31    74    77   am
    32     9    11   am
    33     9     8    1
    34    79    78    1
    35     8     7    1
    36    67    66    1
    37    67    68    2
    38    77    78    1
    39    65    66    1
    40    14    13    2
    41    78    81    1
    42    13    18   am
    43     7     3   am
    44    81    82    1
    45    18    19    1
    46     3     4    2
    47     3     2    1
    48    20    21    2
    49    20    19    1
    50     2     5    1
    51     2     1    1
    52    19    22    1
    53     5     6    1
    54    22    23    1
    55    42    41    1
    56    42    43    1
    57    58    56    1
    58    41    38    1
    59    29    28    1
    60    28    30    1
    61    28    25    1
    62    45    43   am
    63    57    56    1
    64    27    26    2
    65    43    44    2
    66    37    38    1
    67    37    33   am
    68    64    63    1
    69    56    53    1
    70    38    39    1
    71    26    25    1
    72    26    31   am
    73    32    31    1
    74    32    33    1
    75    32    35    1
    76    25    24    1
    77    33    34    2
    78    59    60    1
    79    53    54    1
    80    53    52    1
    81    46    39   am
    82    46    47    1
    83    51    50    1
    84    39    40    2
    85    63    60    1
    86    36    35    1
    87    50    47    1
    88    54    55    2
    89    60    61    1
    90    47    48    1
    91    61    62    2
    92    48    49    2
