@<TRIPOS>MOLECULE
tmp/2pocB01.pdb
 109 104 0 0 0
SMALL
GASTEIGER

@<TRIPOS>ATOM
      1  N         26.6940  -36.4730   75.1020 N.3    24  ARG24      -0.1245
      2  CA        27.6040  -35.3650   74.9540 C.3    24  ARG24       0.1563
      3  C         27.0250  -34.1870   74.2050 C.2    24  ARG24       0.2260
      4  O         27.5120  -33.0730   74.3540 O.2    24  ARG24      -0.2867
      5  CB        28.8880  -35.8420   74.2700 C.3    24  ARG24       0.0307
      6  CG        29.7080  -36.6660   75.2310 C.3    24  ARG24       0.0489
      7  CD        30.6620  -37.6020   74.5070 C.3    24  ARG24       0.2205
      8  NE        31.5980  -38.2100   75.4460 N.pl3  24  ARG24      -0.0865
      9  CZ        32.5340  -39.0750   75.0820 C.cat  24  ARG24       0.5346
     10  NH1       32.6500  -39.4360   73.7940 N.pl3  24  ARG24       0.1354
     11  NH2       33.3550  -39.5660   75.9860 N.pl3  24  ARG24       0.1354
     12  N         32.6360  -34.4680   79.4150 N.3    35  GLY35      -0.1210
     13  CA        32.8720  -34.5230   80.8690 C.3    35  GLY35       0.1956
     14  C         34.3410  -34.6330   81.1930 C.2    35  GLY35       0.2612
     15  O         34.8100  -34.0800   82.1950 O.2    35  GLY35      -0.2717
     16  N         35.0770  -35.3480   80.3390 N.am   36  GLY36      -0.1956
     17  CA        36.5100  -35.5260   80.5320 C.3    36  GLY36       0.1869
     18  C         37.3460  -34.2590   80.4630 C.2    36  GLY36       0.2309
     19  O         38.4590  -34.2430   80.9420 O.2    36  GLY36      -0.2863
     20  N         38.8720  -28.2150   82.5860 N.3    40  TRP40      -0.1241
     21  CA        40.1180  -27.9400   81.8490 C.3    40  TRP40       0.1605
     22  C         40.0000  -26.9630   80.6870 C.2    40  TRP40       0.2264
     23  O         41.0300  -26.4340   80.2080 O.2    40  TRP40      -0.2867
     24  CB        40.6750  -29.2230   81.2850 C.3    40  TRP40       0.0550
     25  CG        41.0550  -30.2140   82.2570 C.ar   40  TRP40       0.0003
     26  CD1       40.2570  -31.2080   82.7920 C.ar   40  TRP40       0.0946
     27  CD2       42.3590  -30.3960   82.8080 C.ar   40  TRP40       0.0152
     28  NE1       40.9980  -31.9700   83.6580 N.ar   40  TRP40      -0.2442
     29  CE2       42.2840  -31.4910   83.6960 C.ar   40  TRP40       0.0810
     30  CE3       43.5730  -29.7150   82.6730 C.ar   40  TRP40       0.0012
     31  CZ2       43.3880  -31.9380   84.4160 C.ar   40  TRP40       0.0191
     32  CZ3       44.6620  -30.1500   83.3980 C.ar   40  TRP40       0.0001
     33  CH2       44.5680  -31.2560   84.2530 C.ar   40  TRP40       0.0015
     34  N         44.1610  -36.1400   75.5420 N.3   126  GLY126     -0.1225
     35  CA        44.0880  -37.3480   74.7020 C.3   126  GLY126      0.1811
     36  C         42.7070  -37.4350   74.0720 C.2   126  GLY126      0.2280
     37  O         41.6770  -37.0430   74.6810 O.2   126  GLY126     -0.2866
     38  N         41.1360  -40.6400   72.5290 N.3   128  VAL128     -0.1245
     39  CA        41.6300  -42.0420   72.5110 C.3   128  VAL128      0.1561
     40  C         40.4450  -43.0260   72.4940 C.2   128  VAL128      0.2260
     41  O         39.4340  -42.7610   73.1320 O.2   128  VAL128     -0.2867
     42  CB        42.5610  -42.3020   73.7700 C.3   128  VAL128      0.0252
     43  CG1       43.0240  -43.7850   73.8650 C.3   128  VAL128      0.0019
     44  CG2       43.8270  -41.3880   73.7130 C.3   128  VAL128      0.0019
     45  N         39.9960  -47.3710   76.2390 N.3   131  VAL131     -0.1245
     46  CA        39.9050  -46.7880   77.5720 C.3   131  VAL131      0.1561
     47  C         41.0090  -47.2840   78.5320 C.2   131  VAL131      0.2260
     48  O         41.2670  -48.4890   78.6320 O.2   131  VAL131     -0.2867
     49  CB        38.4750  -46.9850   78.2110 C.3   131  VAL131      0.0252
     50  CG1       38.4180  -46.4010   79.5980 C.3   131  VAL131      0.0019
     51  CG2       37.4050  -46.3300   77.3710 C.3   131  VAL131      0.0019
     52  N         45.7300  -42.6790   77.1930 N.3   136  SER136     -0.1217
     53  CA        44.6320  -42.2240   78.0410 C.3   136  SER136      0.1889
     54  C         45.1110  -41.9200   79.4700 C.2   136  SER136      0.2288
     55  O         44.8190  -40.8470   80.0480 O.2   136  SER136     -0.2866
     56  CB        43.5160  -43.2840   78.0520 C.3   136  SER136      0.2089
     57  OG        42.5220  -42.8620   78.9960 O.3   136  SER136     -0.2183
     58  N         47.9190  -38.7610   79.4380 N.3   139  THR139     -0.1203
     59  CA        47.4510  -37.3950   79.1650 C.3   139  THR139      0.1994
     60  C         46.7920  -36.7800   80.4130 C.2   139  THR139      0.2618
     61  O         46.2030  -37.5090   81.2420 O.2   139  THR139     -0.2717
     62  CB        46.5010  -37.3150   77.9360 C.3   139  THR139      0.1784
     63  OG1       45.5600  -38.3960   77.9720 O.3   139  THR139     -0.2211
     64  CG2       47.3220  -37.4660   76.6110 C.3   139  THR139      0.0376
     65  N         46.9210  -35.4680   80.5780 N.am  140  HIS140     -0.1961
     66  CA        46.2840  -34.7620   81.7020 C.3   140  HIS140      0.1787
     67  C         44.7640  -34.9620   81.7310 C.2   140  HIS140      0.2620
     68  O         44.1640  -35.2170   82.7920 O.2   140  HIS140     -0.2715
     69  CB        46.5900  -33.2760   81.6100 C.3   140  HIS140      0.0785
     70  CG        48.0150  -32.9430   81.9120 C.ar  140  HIS140      0.0821
     71  ND1       48.9490  -32.6810   80.9340 N.ar  140  HIS140     -0.2267
     72  CD2       48.6580  -32.7940   83.1000 C.ar  140  HIS140      0.1154
     73  CE1       50.1140  -32.4050   81.4990 C.ar  140  HIS140      0.1986
     74  NE2       49.9660  -32.4690   82.8140 N.ar  140  HIS140     -0.2212
     75  N         44.1350  -34.8090   80.5630 N.am  141  CYS141     -0.1954
     76  CA        42.7140  -34.9860   80.3910 C.3   141  CYS141      0.1843
     77  C         42.4360  -35.4570   78.9640 C.2   141  CYS141      0.2626
     78  O         43.3630  -35.6710   78.1640 O.2   141  CYS141     -0.2714
     79  CB        41.9670  -33.6830   80.6200 C.3   141  CYS141      0.0997
     80  SG        42.4290  -32.3610   79.4820 S.3   141  CYS141     -0.0797
     81  N         41.1620  -35.6610   78.6620 N.am  142  GLY142     -0.1940
     82  CA        40.8360  -36.1490   77.3240 C.3   142  GLY142      0.2014
     83  C         39.4220  -36.6020   77.1510 C.2   142  GLY142      0.2639
     84  O         38.5650  -36.4620   78.0570 O.2   142  GLY142     -0.2714
     85  N         39.2020  -37.1890   75.9850 N.am  143  VAL143     -0.1963
     86  CA        37.8790  -37.7080   75.6250 C.3   143  VAL143      0.1727
     87  C         38.0750  -39.1220   75.1430 C.2   143  VAL143      0.2616
     88  O         38.9060  -39.3820   74.2640 O.2   143  VAL143     -0.2715
     89  CB        37.2100  -36.8760   74.4650 C.3   143  VAL143      0.0290
     90  CG1       35.8780  -37.5140   74.0000 C.3   143  VAL143      0.0023
     91  CG2       37.0420  -35.3930   74.8310 C.3   143  VAL143      0.0023
     92  N         37.3570  -40.0690   75.7350 N.am  144  HIS144     -0.1973
     93  CA        37.2940  -41.4100   75.1830 C.3   144  HIS144      0.1656
     94  C         36.2350  -41.4130   74.0960 C.2   144  HIS144      0.2291
     95  O         35.0750  -41.0700   74.3610 O.2   144  HIS144     -0.2864
     96  CB        36.9880  -42.4570   76.3030 C.3   144  HIS144      0.0771
     97  CG        38.1440  -42.6920   77.2430 C.ar  144  HIS144      0.0820
     98  ND1       38.0400  -42.5390   78.6140 N.ar  144  HIS144     -0.2267
     99  CD2       39.4260  -43.0650   77.0070 C.ar  144  HIS144      0.1154
    100  CE1       39.1980  -42.8050   79.1820 C.ar  144  HIS144      0.1986
    101  NE2       40.0590  -43.1320   78.2340 N.ar  144  HIS144     -0.2212
    102  N         34.6250  -43.6930   72.3960 N.3   146  ASN146     -0.1240
    103  CA        33.4960  -44.6340   72.5410 C.3   146  ASN146      0.1653
    104  C         33.0280  -45.2520   71.2240 C.2   146  ASN146      0.2266
    105  O         31.8210  -45.4180   71.0020 O.2   146  ASN146     -0.2867
    106  CB        32.3220  -43.9490   73.2620 C.3   146  ASN146      0.1155
    107  CG        32.6710  -43.5590   74.6960 C.2   146  ASN146      0.2627
    108  OD1       33.5660  -44.1620   75.3050 O.2   146  ASN146     -0.2716
    109  ND2       31.9730  -42.5530   75.2450 N.am  146  ASN146     -0.0877
@<TRIPOS>BOND
     1   105   104    2
     2   104   103    1
     3   102   103    1
     4    40    39    1
     5    40    41    2
     6    39    38    1
     7    39    42    1
     8   103   106    1
     9   106   107    1
    10    44    42    1
    11    42    43    1
    12    10     9    1
    13    90    89    1
    14    36    37    2
    15    36    35    1
    16    94    95    2
    17    94    93    1
    18     3     4    2
    19     3     2    1
    20    88    87    2
    21     5     2    1
    22     5     6    1
    23    89    91    1
    24    89    86    1
    25     7     6    1
    26     7     8    1
    27   107   109   am
    28   107   108    2
    29    35    34    1
    30     2     1    1
    31     9     8    2
    32     9    11    1
    33    87    86    1
    34    87    92   am
    35    93    92    1
    36    93    96    1
    37    86    85    1
    38    85    83   am
    39    45    46    1
    40    96    97    1
    41    64    62    1
    42    99    97   ar
    43    99   101   ar
    44    83    82    1
    45    83    84    2
    46    52    53    1
    47    97    98   ar
    48    82    81    1
    49    51    49    1
    50    46    49    1
    51    46    47    1
    52    62    63    1
    53    62    59    1
    54    53    56    1
    55    53    54    1
    56    56    57    1
    57    78    77    2
    58    49    50    1
    59   101   100   ar
    60    47    48    2
    61    98   100   ar
    62    81    77   am
    63    77    76    1
    64    59    58    1
    65    59    60    1
    66    12    13    1
    67    54    55    2
    68    80    79    1
    69    23    22    2
    70    16    17    1
    71    16    14   am
    72    76    75    1
    73    76    79    1
    74    60    65   am
    75    60    61    2
    76    18    17    1
    77    18    19    2
    78    75    67   am
    79    65    66    1
    80    22    21    1
    81    13    14    1
    82    71    73   ar
    83    71    70   ar
    84    14    15    2
    85    24    21    1
    86    24    25    1
    87    73    74   ar
    88    69    66    1
    89    69    70    1
    90    66    67    1
    91    67    68    2
    92    21    20    1
    93    70    72   ar
    94    25    26   ar
    95    25    27   ar
    96    30    27   ar
    97    30    32   ar
    98    26    28   ar
    99    27    29   ar
   100    74    72   ar
   101    32    33   ar
   102    28    29   ar
   103    29    31   ar
   104    33    31   ar
