@<TRIPOS>MOLECULE
tmp/2poqA00.pdb
 120 118 0 0 0
SMALL
GASTEIGER

@<TRIPOS>ATOM
      1  N        -16.2600  -34.7550   -4.1630 N.3    96  LYS96      -0.1245
      2  CA       -16.0860  -33.9810   -2.9510 C.3    96  LYS96       0.1561
      3  C        -14.6310  -34.1800   -2.4590 C.2    96  LYS96       0.2260
      4  O        -14.0730  -35.2160   -2.7000 O.2    96  LYS96      -0.2867
      5  CB       -17.1050  -34.5290   -1.9330 C.3    96  LYS96       0.0271
      6  CG       -16.5180  -35.5910   -0.9710 C.3    96  LYS96       0.0035
      7  CD       -17.4230  -36.7850   -0.7520 C.3    96  LYS96       0.0206
      8  CE       -17.4130  -37.5560   -2.0400 C.3    96  LYS96       0.1093
      9  NZ       -17.9660  -38.9030   -2.0010 N.3    96  LYS96      -0.1314
     10  N        -22.8760  -36.5990   -1.5000 N.3   124  TRP124     -0.1241
     11  CA       -23.9360  -37.5500   -1.8020 C.3   124  TRP124      0.1605
     12  C        -24.8600  -37.7030   -0.6230 C.2   124  TRP124      0.2264
     13  O        -26.0450  -38.0010   -0.8140 O.2   124  TRP124     -0.2867
     14  CB       -23.3980  -38.9020   -2.3200 C.3   124  TRP124      0.0550
     15  CG       -22.5320  -39.5960   -1.3510 C.ar  124  TRP124      0.0003
     16  CD1      -21.5590  -39.0270   -0.5650 C.ar  124  TRP124      0.0946
     17  CD2      -22.5580  -40.9980   -1.0160 C.ar  124  TRP124      0.0152
     18  NE1      -20.9650  -39.9940    0.2430 N.ar  124  TRP124     -0.2442
     19  CE2      -21.5540  -41.2100   -0.0120 C.ar  124  TRP124      0.0810
     20  CE3      -23.3090  -42.0950   -1.4760 C.ar  124  TRP124      0.0012
     21  CZ2      -21.2810  -42.4790    0.5400 C.ar  124  TRP124      0.0191
     22  CZ3      -23.0450  -43.3450   -0.9350 C.ar  124  TRP124      0.0001
     23  CH2      -22.0060  -43.5290    0.0660 C.ar  124  TRP124      0.0015
     24  N        -16.7990  -37.7700   12.5230 N.3   153  PHE153     -0.1241
     25  CA       -16.4680  -38.8030   11.5870 C.3   153  PHE153      0.1605
     26  C        -14.9830  -39.0790   11.7480 C.2   153  PHE153      0.2264
     27  O        -14.1600  -38.2730   11.3590 O.2   153  PHE153     -0.2867
     28  CB       -16.7710  -38.3190   10.1570 C.3   153  PHE153      0.0534
     29  CG       -16.6810  -39.4020    9.0820 C.ar  153  PHE153     -0.0203
     30  CD1      -16.9700  -39.0880    7.7540 C.ar  153  PHE153     -0.0042
     31  CD2      -16.3870  -40.7260    9.4020 C.ar  153  PHE153     -0.0042
     32  CE1      -16.9020  -40.0510    6.7530 C.ar  153  PHE153     -0.0003
     33  CE2      -16.3140  -41.7040    8.3940 C.ar  153  PHE153     -0.0003
     34  CZ       -16.5500  -41.3680    7.0770 C.ar  153  PHE153     -0.0000
     35  N        -12.0900  -42.5640   11.7300 N.3   155  LYS155     -0.1245
     36  CA       -11.7200  -43.9610   11.5450 C.3   155  LYS155      0.1561
     37  C        -10.1860  -44.0100   11.5100 C.2   155  LYS155      0.2260
     38  O         -9.5960  -43.0340   10.9900 O.2   155  LYS155     -0.2867
     39  CB       -12.2130  -44.3780   10.1460 C.3   155  LYS155      0.0271
     40  CG       -13.6940  -44.7440   10.0900 C.3   155  LYS155      0.0035
     41  CD       -14.0960  -45.0690    8.6620 C.3   155  LYS155      0.0206
     42  CE       -15.4330  -45.7700    8.5410 C.3   155  LYS155      0.1093
     43  NZ       -15.3990  -46.7040    7.3750 N.3   155  LYS155     -0.1314
     44  N         -7.5420  -44.5090    9.2200 N.3   157  LEU157     -0.1245
     45  CA        -7.4190  -44.6390    7.7540 C.3   157  LEU157      0.1561
     46  C         -5.9650  -44.5820    7.3800 C.2   157  LEU157      0.2260
     47  O         -5.6320  -44.2640    6.2280 O.2   157  LEU157     -0.2867
     48  CB        -8.1810  -43.5530    6.9970 C.3   157  LEU157      0.0270
     49  CG        -9.7130  -43.5160    7.1340 C.3   157  LEU157      0.0019
     50  CD1      -10.2690  -42.4780    6.1810 C.3   157  LEU157      0.0001
     51  CD2      -10.3070  -44.8660    6.7920 C.3   157  LEU157      0.0001
     52  N        -10.9840  -35.5020    3.8460 N.3   175  ASP175     -0.1225
     53  CA       -11.6460  -36.7850    3.6310 C.3   175  ASP175      0.1805
     54  C        -12.9010  -36.9930    4.4620 C.2   175  ASP175      0.2597
     55  O        -13.8470  -37.6770    4.0530 O.2   175  ASP175     -0.2718
     56  CB       -10.7720  -37.9100    4.0820 C.3   175  ASP175      0.1424
     57  CG        -9.4930  -38.0340    3.3150 C.2   175  ASP175      0.3668
     58  OD1       -9.2830  -37.4080    2.2560 O.co2 175  ASP175     -0.2456
     59  OD2       -8.6760  -38.8180    3.8310 O.co2 175  ASP175     -0.2456
     60  N        -12.8960  -36.4820    5.6770 N.am  176  LEU176     -0.1979
     61  CA       -13.9600  -36.7840    6.5870 C.3   176  LEU176      0.1596
     62  C        -14.6160  -35.5220    7.1230 C.2   176  LEU176      0.2287
     63  O        -15.8270  -35.4940    7.2800 O.2   176  LEU176     -0.2864
     64  CB       -13.3910  -37.6290    7.6930 C.3   176  LEU176      0.0297
     65  CG       -12.5170  -38.8290    7.2490 C.3   176  LEU176      0.0022
     66  CD1      -11.9070  -39.5100    8.5100 C.3   176  LEU176      0.0001
     67  CD2      -13.3050  -39.8730    6.3980 C.3   176  LEU176      0.0001
     68  N        -17.7770  -33.9580    5.5350 N.3   179  TYR179     -0.1241
     69  CA       -19.1030  -34.4440    5.8220 C.3   179  TYR179      0.1605
     70  C        -19.6830  -33.7240    7.0250 C.2   179  TYR179      0.2264
     71  O        -20.8780  -33.4140    7.0670 O.2   179  TYR179     -0.2867
     72  CB       -19.0770  -35.9400    6.0440 C.3   179  TYR179      0.0534
     73  CG       -18.8630  -36.7360    4.7910 C.ar  179  TYR179     -0.0201
     74  CD1      -19.8730  -36.8810    3.8460 C.ar  179  TYR179     -0.0009
     75  CD2      -17.6500  -37.3940    4.5640 C.ar  179  TYR179     -0.0009
     76  CE1      -19.6890  -37.6820    2.7290 C.ar  179  TYR179      0.0417
     77  CE2      -17.4560  -38.1610    3.4660 C.ar  179  TYR179      0.0417
     78  CZ       -18.4810  -38.3230    2.5480 C.ar  179  TYR179      0.1957
     79  OH       -18.2740  -39.1260    1.4430 O.3   179  TYR179     -0.2866
     80  N        -22.4210  -40.5030    7.2690 N.3   253  TRP253     -0.1241
     81  CA       -22.0990  -39.8920    5.9730 C.3   253  TRP253      0.1605
     82  C        -22.8420  -40.5690    4.7990 C.2   253  TRP253      0.2264
     83  O        -22.7550  -40.1380    3.6280 O.2   253  TRP253     -0.2867
     84  CB       -20.5910  -39.9190    5.7120 C.3   253  TRP253      0.0550
     85  CG       -20.0280  -41.3250    5.5050 C.ar  253  TRP253      0.0003
     86  CD1      -19.7600  -41.9360    4.3040 C.ar  253  TRP253      0.0946
     87  CD2      -19.7220  -42.3020    6.5190 C.ar  253  TRP253      0.0152
     88  NE1      -19.2690  -43.2170    4.5110 N.ar  253  TRP253     -0.2442
     89  CE2      -19.2220  -43.4510    5.8650 C.ar  253  TRP253      0.0810
     90  CE3      -19.7730  -42.2990    7.9130 C.ar  253  TRP253      0.0012
     91  CZ2      -18.7920  -44.5770    6.5620 C.ar  253  TRP253      0.0191
     92  CZ3      -19.3050  -43.4250    8.6100 C.ar  253  TRP253      0.0001
     93  CH2      -18.8570  -44.5420    7.9300 C.ar  253  TRP253      0.0015
     94  N        -17.0470  -50.7190   -3.5740 N.3   277  ASN277     -0.1225
     95  CA       -15.8340  -50.3300   -2.9240 C.3   277  ASN277      0.1785
     96  C        -16.0070  -49.5930   -1.6520 C.2   277  ASN277      0.2597
     97  O        -15.2080  -49.7730   -0.7350 O.2   277  ASN277     -0.2718
     98  CB       -14.9500  -49.5330   -3.8500 C.3   277  ASN277      0.1169
     99  CG       -14.4420  -50.3240   -4.9660 C.2   277  ASN277      0.2627
    100  OD1      -13.8300  -51.3010   -4.7860 O.2   277  ASN277     -0.2716
    101  ND2      -14.6840  -49.8820   -6.1330 N.am  277  ASN277     -0.0877
    102  N        -17.0160  -48.7680   -1.5620 N.am  278  PHE278     -0.1962
    103  CA       -17.2220  -48.0060   -0.3720 C.3   278  PHE278      0.1771
    104  C        -18.5120  -48.3680    0.3000 C.2   278  PHE278      0.2619
    105  O        -19.4880  -48.7460   -0.3370 O.2   278  PHE278     -0.2715
    106  CB       -17.0980  -46.5110   -0.6490 C.3   278  PHE278      0.0574
    107  CG       -15.7960  -46.1250   -1.2210 C.ar  278  PHE278     -0.0200
    108  CD1      -14.6950  -46.0770   -0.4520 C.ar  278  PHE278     -0.0042
    109  CD2      -15.6730  -45.8230   -2.5340 C.ar  278  PHE278     -0.0042
    110  CE1      -13.5420  -45.7760   -0.9760 C.ar  278  PHE278     -0.0003
    111  CE2      -14.5210  -45.5280   -3.0450 C.ar  278  PHE278     -0.0003
    112  CZ       -13.4530  -45.4880   -2.2750 C.ar  278  PHE278     -0.0000
    113  N        -18.5450  -48.2870    1.6080 N.am  279  ASP279     -0.1971
    114  CA       -19.7010  -48.6970    2.3570 C.3   279  ASP279      0.1709
    115  C        -20.9040  -47.8890    1.9240 C.2   279  ASP279      0.2293
    116  O        -20.8270  -46.7010    1.7470 O.2   279  ASP279     -0.2864
    117  CB       -19.3920  -48.6240    3.8550 C.3   279  ASP279      0.1436
    118  CG       -20.6200  -48.7880    4.7630 C.2   279  ASP279      0.3671
    119  OD1      -21.3800  -49.7520    4.6570 O.co2 279  ASP279     -0.2456
    120  OD2      -20.8730  -48.0170    5.6820 O.co2 279  ASP279     -0.2456
@<TRIPOS>BOND
     1   101    99   am
     2    99   100    2
     3    99    98    1
     4     1     2    1
     5    98    95    1
     6    94    95    1
     7   111   109   ar
     8   111   112   ar
     9     2     3    1
    10     2     5    1
    11    95    96    1
    12     4     3    2
    13   109   107   ar
    14    14    11    1
    15    14    15    1
    16   112   110   ar
    17     8     9    1
    18     8     7    1
    19     5     6    1
    20    11    10    1
    21    11    12    1
    22    96   102   am
    23    96    97    2
    24   102   103    1
    25    20    17   ar
    26    20    22   ar
    27    15    17   ar
    28    15    16   ar
    29   107   106    1
    30   107   108   ar
    31    17    19   ar
    32   110   108   ar
    33     6     7    1
    34    22    23   ar
    35    13    12    2
    36   106   103    1
    37    16    18   ar
    38   103   104    1
    39   105   104    2
    40    19    18   ar
    41    19    21   ar
    42    23    21   ar
    43   104   113   am
    44    79    78    1
    45   113   114    1
    46   116   115    2
    47   115   114    1
    48    58    57   ar
    49   114   117    1
    50    78    76   ar
    51    78    77   ar
    52    76    74   ar
    53    57    59   ar
    54    57    56    1
    55    77    75   ar
    56    83    82    2
    57    53    52    1
    58    53    56    1
    59    53    54    1
    60    74    73   ar
    61   117   118    1
    62    55    54    2
    63    86    88   ar
    64    86    85   ar
    65    54    60   am
    66    88    89   ar
    67    75    73   ar
    68   119   118   ar
    69   118   120   ar
    70    73    72    1
    71    82    81    1
    72    85    84    1
    73    85    87   ar
    74    68    69    1
    75    60    61    1
    76    84    81    1
    77    69    72    1
    78    69    70    1
    79    89    87   ar
    80    89    91   ar
    81    81    80    1
    82    50    49    1
    83    47    46    2
    84    67    65    1
    85    87    90   ar
    86    91    93   ar
    87    61    62    1
    88    61    64    1
    89    32    34   ar
    90    32    30   ar
    91    51    49    1
    92    48    49    1
    93    48    45    1
    94    70    71    2
    95    34    33   ar
    96    62    63    2
    97    65    64    1
    98    65    66    1
    99    43    42    1
   100    46    45    1
   101    30    29   ar
   102    45    44    1
   103    90    92   ar
   104    93    92   ar
   105    33    31   ar
   106    42    41    1
   107    41    40    1
   108    29    31   ar
   109    29    28    1
   110    40    39    1
   111    39    36    1
   112    28    25    1
   113    38    37    2
   114    27    26    2
   115    37    36    1
   116    36    35    1
   117    25    26    1
   118    25    24    1
