@<TRIPOS>MOLECULE
tmp/2porA03.pdb
 104 101 0 0 0
SMALL
GASTEIGER

@<TRIPOS>ATOM
      1  N         11.6460  -36.7890   24.4890 N.3   186  LEU186     -0.1231
      2  CA        11.6530  -37.5000   23.2120 C.3   186  LEU186      0.1693
      3  C         10.3270  -37.0930   22.6290 C.2   186  LEU186      0.2592
      4  O          9.3050  -37.1080   23.3300 O.2   186  LEU186     -0.2718
      5  CB        11.6000  -39.0200   23.3050 C.3   186  LEU186      0.0284
      6  CG        12.7370  -39.5990   24.0720 C.3   186  LEU186      0.0019
      7  CD1       12.4370  -41.0580   24.3220 C.3   186  LEU186      0.0001
      8  CD2       14.0290  -39.3350   23.3320 C.3   186  LEU186      0.0001
      9  N         10.3100  -36.7010   21.3640 N.am  187  ALA187     -0.1966
     10  CA         9.0780  -36.2910   20.7430 C.3   187  ALA187      0.1728
     11  C          9.0310  -36.9450   19.3630 C.2   187  ALA187      0.2616
     12  O         10.0690  -37.2140   18.7570 O.2   187  ALA187     -0.2715
     13  CB         9.0740  -34.7770   20.6100 C.3   187  ALA187      0.0334
     14  N          7.8530  -37.2160   18.8730 N.am  188  ALA188     -0.1977
     15  CA         7.6630  -37.7890   17.5630 C.3   188  ALA188      0.1597
     16  C          6.5120  -37.0310   16.9350 C.2   188  ALA188      0.2287
     17  O          5.5400  -36.7440   17.6440 O.2   188  ALA188     -0.2864
     18  CB         7.2780  -39.2640   17.6740 C.3   188  ALA188      0.0319
     19  N          3.3600  -36.9200   19.7920 N.3   199  ALA199     -0.1231
     20  CA         3.5120  -37.6430   21.0500 C.3   199  ALA199      0.1694
     21  C          4.8260  -37.2640   21.6940 C.2   199  ALA199      0.2592
     22  O          5.7730  -36.9030   20.9760 O.2   199  ALA199     -0.2718
     23  CB         3.5470  -39.1370   20.8310 C.3   199  ALA199      0.0304
     24  N          4.9480  -37.2870   23.0290 N.am  200  TYR200     -0.1962
     25  CA         6.2320  -36.9780   23.6470 C.3   200  TYR200      0.1771
     26  C          6.3120  -37.7810   24.9570 C.2   200  TYR200      0.2619
     27  O          5.2850  -38.2290   25.4710 O.2   200  TYR200     -0.2715
     28  CB         6.3660  -35.4680   23.9650 C.3   200  TYR200      0.0574
     29  CG         5.4490  -35.0110   25.1140 C.ar  200  TYR200     -0.0198
     30  CD1        4.1000  -34.7400   24.9060 C.ar  200  TYR200     -0.0009
     31  CD2        5.9790  -34.9280   26.4140 C.ar  200  TYR200     -0.0009
     32  CE1        3.2800  -34.3980   25.9850 C.ar  200  TYR200      0.0417
     33  CE2        5.1670  -34.5920   27.4930 C.ar  200  TYR200      0.0417
     34  CZ         3.8250  -34.3310   27.2760 C.ar  200  TYR200      0.1957
     35  OH         3.0380  -34.0160   28.3770 O.3   200  TYR200     -0.2866
     36  N          7.4990  -37.8950   25.4870 N.am  201  TYR201     -0.1974
     37  CA         7.7060  -38.4680   26.7780 C.3   201  TYR201      0.1639
     38  C          8.7680  -37.5590   27.3810 C.2   201  TYR201      0.2290
     39  O          9.7410  -37.1910   26.7080 O.2   201  TYR201     -0.2864
     40  CB         8.1940  -39.9010   26.6030 C.3   201  TYR201      0.0560
     41  CG         8.6750  -40.4480   27.9360 C.ar  201  TYR201     -0.0198
     42  CD1        7.7270  -40.9320   28.8150 C.ar  201  TYR201     -0.0009
     43  CD2       10.0310  -40.4140   28.2500 C.ar  201  TYR201     -0.0009
     44  CE1        8.1370  -41.3920   30.0410 C.ar  201  TYR201      0.0417
     45  CE2       10.4420  -40.8700   29.4810 C.ar  201  TYR201      0.0417
     46  CZ         9.4810  -41.3560   30.3570 C.ar  201  TYR201      0.1957
     47  OH         9.8690  -41.8250   31.6010 O.3   201  TYR201     -0.2866
     48  N          3.9720  -37.3750   29.8010 N.3   232  TYR232     -0.1227
     49  CA         3.8740  -37.9080   28.4450 C.3   232  TYR232      0.1736
     50  C          2.4870  -37.6050   27.8950 C.2   232  TYR232      0.2596
     51  O          1.5500  -37.3480   28.6680 O.2   232  TYR232     -0.2718
     52  CB         4.1620  -39.4390   28.4130 C.3   232  TYR232      0.0548
     53  CG         3.4940  -40.2400   29.5150 C.ar  232  TYR232     -0.0200
     54  CD1        4.1670  -40.3750   30.7180 C.ar  232  TYR232     -0.0009
     55  CD2        2.2360  -40.7890   29.3310 C.ar  232  TYR232     -0.0009
     56  CE1        3.5710  -41.0570   31.7530 C.ar  232  TYR232      0.0417
     57  CE2        1.6340  -41.4880   30.3660 C.ar  232  TYR232      0.0417
     58  CZ         2.3120  -41.6110   31.5730 C.ar  232  TYR232      0.1957
     59  OH         1.7170  -42.2780   32.6420 O.3   232  TYR232     -0.2866
     60  N          2.2850  -37.5610   26.5740 N.am  233  GLY233     -0.1942
     61  CA         0.9850  -37.2440   26.0140 C.3   233  GLY233      0.2014
     62  C          0.9500  -37.5070   24.5140 C.2   233  GLY233      0.2638
     63  O          1.9410  -37.8330   23.8560 O.2   233  GLY233     -0.2714
     64  N         -0.2230  -37.3230   23.9960 N.am  234  LEU234     -0.1977
     65  CA        -0.4600  -37.6400   22.6180 C.3   234  LEU234      0.1596
     66  C         -1.5840  -36.7770   22.1030 C.2   234  LEU234      0.2287
     67  O         -2.5140  -36.5060   22.8900 O.2   234  LEU234     -0.2864
     68  CB        -0.8660  -39.0700   22.5660 C.3   234  LEU234      0.0297
     69  CG        -1.5390  -39.5440   21.3170 C.3   234  LEU234      0.0022
     70  CD1       -0.4800  -39.7860   20.2450 C.3   234  LEU234      0.0001
     71  CD2       -2.3560  -40.7510   21.6480 C.3   234  LEU234      0.0001
     72  N         -4.3210  -36.0400   25.1950 N.3   249  VAL249     -0.1245
     73  CA        -4.3670  -36.4700   26.5930 C.3   249  VAL249      0.1561
     74  C         -2.9230  -36.4230   27.0590 C.2   249  VAL249      0.2260
     75  O         -1.9750  -36.7250   26.3180 O.2   249  VAL249     -0.2867
     76  CB        -5.0030  -37.8940   26.7290 C.3   249  VAL249      0.0252
     77  CG1       -4.1580  -38.9590   26.0690 C.3   249  VAL249      0.0019
     78  CG2       -5.1540  -38.2070   28.2110 C.3   249  VAL249      0.0019
     79  N         -0.3580  -36.7610   30.7700 N.3   251  VAL251     -0.1245
     80  CA        -0.3070  -37.0170   32.1890 C.3   251  VAL251      0.1561
     81  C          1.0150  -36.4920   32.6760 C.2   251  VAL251      0.2260
     82  O          2.0680  -36.4810   32.0140 O.2   251  VAL251     -0.2867
     83  CB        -0.5100  -38.5520   32.6080 C.3   251  VAL251      0.0252
     84  CG1       -0.9680  -39.3550   31.4340 C.3   251  VAL251      0.0019
     85  CG2        0.7020  -39.1040   33.2830 C.3   251  VAL251      0.0019
     86  N         -4.0730  -36.5290   34.9530 N.3   261  THR261     -0.1218
     87  CA        -4.3230  -36.7880   33.5510 C.3   261  THR261      0.1862
     88  C         -5.3060  -35.6900   33.1450 C.2   261  THR261      0.2287
     89  O         -6.3360  -35.4650   33.7990 O.2   261  THR261     -0.2866
     90  CB        -4.9490  -38.1900   33.3490 C.3   261  THR261      0.1770
     91  OG1       -3.9300  -39.1260   33.7340 O.3   261  THR261     -0.2211
     92  CG2       -5.4620  -38.4170   31.9080 C.3   261  THR261      0.0375
     93  N         -7.0420  -33.6220   29.5590 N.3   263  TYR263     -0.1241
     94  CA        -7.3350  -33.9060   28.1750 C.3   263  TYR263      0.1605
     95  C         -8.3370  -32.8930   27.6160 C.2   263  TYR263      0.2264
     96  O         -8.9750  -32.1350   28.3530 O.2   263  TYR263     -0.2867
     97  CB        -7.8570  -35.3630   28.1040 C.3   263  TYR263      0.0534
     98  CG        -9.1750  -35.5130   28.8190 C.ar  263  TYR263     -0.0201
     99  CD1      -10.3160  -35.1990   28.0930 C.ar  263  TYR263     -0.0009
    100  CD2       -9.2070  -35.8440   30.1650 C.ar  263  TYR263     -0.0009
    101  CE1      -11.5390  -35.1740   28.6910 C.ar  263  TYR263      0.0417
    102  CE2      -10.4380  -35.8220   30.7780 C.ar  263  TYR263      0.0417
    103  CZ       -11.5800  -35.4770   30.0320 C.ar  263  TYR263      0.1957
    104  OH       -12.8230  -35.3580   30.6420 O.3   263  TYR263     -0.2866
@<TRIPOS>BOND
     1    16    15    1
     2    16    17    2
     3    15    18    1
     4    15    14    1
     5    12    11    2
     6    14    11   am
     7    11    10    1
     8    19    20    1
     9    70    69    1
    10    13    10    1
    11    10     9    1
    12    23    20    1
    13    22    21    2
    14    20    21    1
    15    69    71    1
    16    69    68    1
    17     9     3   am
    18    21    24   am
    19    66    65    1
    20    66    67    2
    21    68    65    1
    22    65    64    1
    23     3     2    1
    24     3     4    2
    25    24    25    1
    26     2     5    1
    27     2     1    1
    28     5     6    1
    29     8     6    1
    30    25    28    1
    31    25    26    1
    32    63    62    2
    33    28    29    1
    34    64    62   am
    35     6     7    1
    36    62    61    1
    37    30    29   ar
    38    30    32   ar
    39    26    27    2
    40    26    36   am
    41    29    31   ar
    42    72    73    1
    43    36    37    1
    44    32    34   ar
    45    61    60    1
    46    77    76    1
    47    75    74    2
    48    31    33   ar
    49    60    50   am
    50    73    76    1
    51    73    74    1
    52    40    37    1
    53    40    41    1
    54    39    38    2
    55    76    78    1
    56    37    38    1
    57    34    33   ar
    58    34    35    1
    59    95    94    1
    60    95    96    2
    61    50    49    1
    62    50    51    2
    63    41    43   ar
    64    41    42   ar
    65    99   101   ar
    66    99    98   ar
    67    97    94    1
    68    97    98    1
    69    94    93    1
    70    43    45   ar
    71    52    49    1
    72    52    53    1
    73    49    48    1
    74   101   103   ar
    75    42    44   ar
    76    98   100   ar
    77    55    53   ar
    78    55    57   ar
    79    45    46   ar
    80    53    54   ar
    81   103   104    1
    82   103   102   ar
    83    44    46   ar
    84   100   102   ar
    85    46    47    1
    86    57    58   ar
    87    54    56   ar
    88    79    80    1
    89    84    83    1
    90    58    56   ar
    91    58    59    1
    92    92    90    1
    93    82    81    2
    94    80    83    1
    95    80    81    1
    96    83    85    1
    97    88    87    1
    98    88    89    2
    99    90    87    1
   100    90    91    1
   101    87    86    1
