@<TRIPOS>MOLECULE
tmp/2porA01.pdb
 94 92 0 0 0
SMALL
GASTEIGER

@<TRIPOS>ATOM
      1  N        -18.9290  -17.7760   23.7690 N.3    12  VAL12      -0.1245
      2  CA       -19.3100  -18.0510   25.1770 C.3    12  VAL12       0.1561
      3  C        -18.4210  -19.1180   25.7530 C.2    12  VAL12       0.2260
      4  O        -18.0050  -20.0340   25.0370 O.2    12  VAL12      -0.2867
      5  CB       -20.7860  -18.5180   25.3190 C.3    12  VAL12       0.0252
      6  CG1      -21.6390  -17.2870   25.0710 C.3    12  VAL12       0.0019
      7  CG2      -21.1670  -19.6320   24.3550 C.3    12  VAL12       0.0019
      8  N        -21.5700  -19.8450   32.3940 N.3    19  TRP19      -0.1227
      9  CA       -21.2280  -19.3340   31.0740 C.3    19  TRP19       0.1737
     10  C        -20.8870  -17.8500   31.2010 C.2    19  TRP19       0.2595
     11  O        -21.4890  -17.1500   32.0230 O.2    19  TRP19      -0.2718
     12  CB       -22.4130  -19.4890   30.0990 C.3    19  TRP19       0.0564
     13  CG       -22.6000  -20.9310   29.6710 C.ar   19  TRP19       0.0003
     14  CD1      -23.5210  -21.7350   30.2830 C.ar   19  TRP19       0.0946
     15  CD2      -21.8790  -21.5860   28.7040 C.ar   19  TRP19       0.0152
     16  NE1      -23.3780  -22.9070   29.7050 N.ar   19  TRP19      -0.2442
     17  CE2      -22.4160  -22.8610   28.7690 C.ar   19  TRP19       0.0810
     18  CE3      -20.8690  -21.2910   27.8040 C.ar   19  TRP19       0.0012
     19  CZ2      -21.9550  -23.8580   27.9420 C.ar   19  TRP19       0.0191
     20  CZ3      -20.4040  -22.2930   26.9740 C.ar   19  TRP19       0.0001
     21  CH2      -20.9470  -23.5600   27.0450 C.ar   19  TRP19       0.0015
     22  N        -19.9150  -17.3450   30.4390 N.am   20  ASN20      -0.1960
     23  CA       -19.6100  -15.9340   30.3630 C.3    20  ASN20       0.1819
     24  C        -19.3250  -15.5850   28.9090 C.2    20  ASN20       0.2621
     25  O        -18.8240  -16.4520   28.1790 O.2    20  ASN20      -0.2715
     26  CB       -18.3580  -15.5710   31.1350 C.3    20  ASN20       0.1195
     27  CG       -18.6320  -15.2090   32.5940 C.2    20  ASN20       0.2630
     28  OD1      -18.9810  -14.0610   32.9120 O.2    20  ASN20      -0.2716
     29  ND2      -18.3560  -16.1930   33.4290 N.am   20  ASN20      -0.0877
     30  N        -19.5790  -14.3480   28.5110 N.am   21  PHE21      -0.1974
     31  CA       -19.1230  -13.8390   27.2080 C.3    21  PHE21       0.1639
     32  C        -17.5960  -13.7400   27.2730 C.2    21  PHE21       0.2290
     33  O        -17.0460  -13.3750   28.3230 O.2    21  PHE21      -0.2864
     34  CB       -19.6930  -12.4340   26.9200 C.3    21  PHE21       0.0560
     35  CG       -21.2100  -12.2600   26.7980 C.ar   21  PHE21      -0.0200
     36  CD1      -22.0380  -13.3170   26.4500 C.ar   21  PHE21      -0.0042
     37  CD2      -21.7300  -11.0040   27.0470 C.ar   21  PHE21      -0.0042
     38  CE1      -23.3870  -13.0810   26.3660 C.ar   21  PHE21      -0.0003
     39  CE2      -23.0880  -10.7890   26.9540 C.ar   21  PHE21      -0.0003
     40  CZ       -23.9060  -11.8310   26.6150 C.ar   21  PHE21      -0.0000
     41  N        -10.9470  -32.0880   23.7940 N.3   265  LEU265     -0.1231
     42  CA       -11.5370  -32.5660   22.5620 C.3   265  LEU265      0.1693
     43  C        -12.2370  -31.3440   21.9560 C.2   265  LEU265      0.2593
     44  O        -13.0410  -30.6580   22.6280 O.2   265  LEU265     -0.2718
     45  CB       -12.5840  -33.6550   22.8790 C.3   265  LEU265      0.0284
     46  CG       -12.6490  -34.9950   22.1750 C.3   265  LEU265      0.0019
     47  CD1      -12.7630  -34.8160   20.6580 C.3   265  LEU265      0.0001
     48  CD2      -11.3950  -35.7790   22.5460 C.3   265  LEU265      0.0001
     49  N        -11.9510  -31.0220   20.6940 N.am  266  GLY266     -0.1942
     50  CA       -12.6400  -29.9070   20.0610 C.3   266  GLY266      0.2014
     51  C        -12.7290  -30.0280   18.5490 C.2   266  GLY266      0.2638
     52  O        -12.1230  -30.9120   17.9290 O.2   266  GLY266     -0.2714
     53  N        -13.4720  -29.1130   17.9640 N.am  267  ALA267     -0.1977
     54  CA       -13.6270  -29.0970   16.5320 C.3   267  ALA267      0.1597
     55  C        -13.6260  -27.6900   16.0160 C.2   267  ALA267      0.2287
     56  O        -13.9430  -26.7600   16.7640 O.2   267  ALA267     -0.2864
     57  CB       -14.9470  -29.6880   16.1190 C.3   267  ALA267      0.0319
     58  N        -15.1400  -24.8440   18.9070 N.3   279  GLY279     -0.1210
     59  CA       -15.7200  -25.1650   20.2010 C.3   279  GLY279      0.1956
     60  C        -14.9450  -26.3300   20.7720 C.2   279  GLY279      0.2612
     61  O        -14.2360  -27.0240   20.0310 O.2   279  GLY279     -0.2717
     62  N        -15.0090  -26.6050   22.0700 N.am  280  GLY280     -0.1942
     63  CA       -14.2340  -27.6940   22.6410 C.3   280  GLY280      0.2014
     64  C        -14.6170  -27.9150   24.0960 C.2   280  GLY280      0.2638
     65  O        -15.4000  -27.1570   24.6690 O.2   280  GLY280     -0.2714
     66  N        -14.0430  -28.9560   24.6370 N.am  281  ILE281     -0.1977
     67  CA       -14.3320  -29.4230   25.9690 C.3   281  ILE281      0.1596
     68  C        -12.9650  -29.7570   26.5470 C.2   281  ILE281      0.2287
     69  O        -12.0830  -30.2310   25.8180 O.2   281  ILE281     -0.2864
     70  CB       -15.3350  -30.6150   25.7210 C.3   281  ILE281      0.0276
     71  CG1      -16.4730  -30.2690   26.5690 C.3   281  ILE281      0.0022
     72  CG2      -14.8780  -32.0350   26.0090 C.3   281  ILE281      0.0022
     73  CD1      -17.4530  -29.4120   25.7820 C.3   281  ILE281      0.0001
     74  N        -15.6300  -25.5980   28.8530 N.3   293  ALA293     -0.1231
     75  CA       -16.0750  -25.7650   27.4780 C.3   293  ALA293      0.1694
     76  C        -16.1940  -24.3880   26.8430 C.2   293  ALA293      0.2592
     77  O        -16.2710  -23.3800   27.5710 O.2   293  ALA293     -0.2718
     78  CB       -17.4550  -26.4110   27.4250 C.3   293  ALA293      0.0304
     79  N        -16.2080  -24.2530   25.5070 N.am  294  ASP294     -0.1960
     80  CA       -16.5210  -22.9620   24.9060 C.3   294  ASP294      0.1840
     81  C        -17.0850  -23.1510   23.5090 C.2   294  ASP294      0.2621
     82  O        -16.9940  -24.2770   22.9810 O.2   294  ASP294     -0.2715
     83  CB       -15.2750  -22.0920   24.8620 C.3   294  ASP294      0.1450
     84  CG       -14.1350  -22.4820   23.9330 C.2   294  ASP294      0.3671
     85  OD1      -14.2980  -23.1570   22.9220 O.co2 294  ASP294     -0.2456
     86  OD2      -13.0270  -22.0660   24.2220 O.co2 294  ASP294     -0.2456
     87  N        -17.6300  -22.0920   22.9340 N.am  295  LEU295     -0.1977
     88  CA       -18.1560  -22.1430   21.5900 C.3   295  LEU295      0.1596
     89  C        -18.1290  -20.7350   21.0680 C.2   295  LEU295      0.2287
     90  O        -18.7360  -19.8330   21.6570 O.2   295  LEU295     -0.2864
     91  CB       -19.5840  -22.6650   21.5970 C.3   295  LEU295      0.0297
     92  CG       -20.2390  -22.7270   20.1740 C.3   295  LEU295      0.0022
     93  CD1      -19.4940  -23.7160   19.2790 C.3   295  LEU295      0.0001
     94  CD2      -21.6620  -23.1940   20.2700 C.3   295  LEU295      0.0001
@<TRIPOS>BOND
     1    55    54    1
     2    55    56    2
     3    57    54    1
     4    54    53    1
     5    52    51    2
     6    53    51   am
     7    51    50    1
     8    58    59    1
     9    93    92    1
    10    61    60    2
    11    50    49    1
    12    92    94    1
    13    92    91    1
    14    59    60    1
    15    47    46    1
    16    49    43   am
    17    60    62   am
    18    89    88    1
    19    89    90    2
    20    88    91    1
    21    88    87    1
    22    43    42    1
    23    43    44    2
    24    62    63    1
    25    46    48    1
    26    46    45    1
    27    42    45    1
    28    42    41    1
    29    63    64    1
    30    85    84   ar
    31    87    81   am
    32    82    81    2
    33    81    80    1
    34     1     2    1
    35    84    86   ar
    36    84    83    1
    37    64    66   am
    38    64    65    2
    39     7     5    1
    40    66    67    1
    41    83    80    1
    42    80    79    1
    43     4     3    2
    44     6     5    1
    45     2     5    1
    46     2     3    1
    47    79    76   am
    48    70    67    1
    49    70    72    1
    50    70    71    1
    51    73    71    1
    52    69    68    2
    53    67    68    1
    54    38    36   ar
    55    38    40   ar
    56    36    35   ar
    57    40    39   ar
    58    35    34    1
    59    35    37   ar
    60    76    75    1
    61    76    77    2
    62    34    31    1
    63    39    37   ar
    64    20    21   ar
    65    20    18   ar
    66    21    19   ar
    67    31    32    1
    68    31    30    1
    69    32    33    2
    70    78    75    1
    71    75    74    1
    72    18    15   ar
    73    19    17   ar
    74    25    24    2
    75    30    24   am
    76    15    17   ar
    77    15    13   ar
    78    17    16   ar
    79    24    23    1
    80    13    12    1
    81    13    14   ar
    82    16    14   ar
    83    12     9    1
    84    23    22    1
    85    23    26    1
    86    22    10   am
    87     9    10    1
    88     9     8    1
    89    26    27    1
    90    10    11    2
    91    27    28    2
    92    27    29   am
