@<TRIPOS>MOLECULE
tmp/2pouA00.pdb
 167 162 0 0 0
SMALL
GASTEIGER

@<TRIPOS>ATOM
      1  N          8.2060   -0.4150   10.1240 N.3     3  TRP3       -0.1241
      2  CA         7.6200   -1.3550   11.0710 C.3     3  TRP3        0.1605
      3  C          6.5980   -2.2310   10.3580 C.2     3  TRP3        0.2264
      4  O          6.0250   -1.8330    9.3420 O.2     3  TRP3       -0.2867
      5  CB         6.9480   -0.6190   12.2450 C.3     3  TRP3        0.0550
      6  CG         5.7010    0.1480   11.8930 C.ar    3  TRP3        0.0003
      7  CD1        5.6140    1.4600   11.5240 C.ar    3  TRP3        0.0946
      8  CD2        4.3610   -0.3600   11.8810 C.ar    3  TRP3        0.0152
      9  NE1        4.3030    1.8010   11.2850 N.ar    3  TRP3       -0.2442
     10  CE2        3.5140    0.7010   11.4960 C.ar    3  TRP3        0.0810
     11  CE3        3.7960   -1.6120   12.1590 C.ar    3  TRP3        0.0012
     12  CZ2        2.1270    0.5480   11.3800 C.ar    3  TRP3        0.0191
     13  CZ3        2.4160   -1.7640   12.0440 C.ar    3  TRP3        0.0001
     14  CH2        1.5990   -0.6880   11.6560 C.ar    3  TRP3        0.0015
     15  N         -3.0590    0.1740    3.5600 N.3    60  ASN60      -0.1240
     16  CA        -1.9020    0.9230    4.0490 C.3    60  ASN60       0.1653
     17  C         -0.6080    0.1240    4.2120 C.2    60  ASN60       0.2266
     18  O          0.3730    0.6240    4.7720 O.2    60  ASN60      -0.2867
     19  CB        -2.2480    1.6060    5.3770 C.3    60  ASN60       0.1155
     20  CG        -2.7580    0.6310    6.4160 C.2    60  ASN60       0.2627
     21  OD1       -2.2920   -0.5040    6.4960 O.2    60  ASN60      -0.2716
     22  ND2       -3.7110    1.0750    7.2280 N.am   60  ASN60      -0.0877
     23  N         -0.2940   -2.7230    5.9550 N.3    62  HIS62      -0.1226
     24  CA        -0.3870   -3.6630    7.0670 C.3    62  HIS62       0.1752
     25  C         -1.8240   -4.1170    7.3040 C.2    62  HIS62       0.2595
     26  O         -2.0550   -5.1510    7.9270 O.2    62  HIS62      -0.2718
     27  CB         0.2010   -3.0870    8.3570 C.3    62  HIS62       0.0759
     28  CG        -0.4020   -1.7850    8.7820 C.ar   62  HIS62       0.0818
     29  ND1        0.0870   -0.5700    8.3550 N.ar   62  HIS62      -0.2268
     30  CD2       -1.4290   -1.5060    9.6150 C.ar   62  HIS62       0.1154
     31  CE1       -0.6110    0.4040    8.9110 C.ar   62  HIS62       0.1986
     32  NE2       -1.5380   -0.1370    9.6800 N.ar   62  HIS62      -0.2212
     33  N         -2.7770   -3.3370    6.8030 N.am   63  ALA63      -0.1980
     34  CA        -4.1990   -3.6470    6.9160 C.3    63  ALA63       0.1597
     35  C         -4.9330   -2.7110    5.9580 C.2    63  ALA63       0.2287
     36  O         -4.3240   -2.1440    5.0460 O.2    63  ALA63      -0.2864
     37  CB        -4.6790   -3.4280    8.3490 C.3    63  ALA63       0.0319
     38  N         -7.9600    0.5060    5.7780 N.3    65  ASN65      -0.1240
     39  CA        -8.7900    1.4420    6.5250 C.3    65  ASN65       0.1653
     40  C         -9.9790    1.9250    5.7120 C.2    65  ASN65       0.2266
     41  O         -9.8230    2.3380    4.5630 O.2    65  ASN65      -0.2867
     42  CB        -7.9890    2.6840    6.9440 C.3    65  ASN65       0.1155
     43  CG        -6.9560    2.3960    8.0180 C.2    65  ASN65       0.2627
     44  OD1       -7.0850    1.4500    8.7940 O.2    65  ASN65      -0.2716
     45  ND2       -5.9350    3.2420    8.0880 N.am   65  ASN65      -0.0877
     46  N        -12.5260    6.2800   11.1600 N.3    90  GLN90      -0.1245
     47  CA       -12.2010    5.1260   10.3240 C.3    90  GLN90       0.1566
     48  C        -12.3700    3.8280   11.0900 C.2    90  GLN90       0.2260
     49  O        -12.5420    3.8320   12.3070 O.2    90  GLN90      -0.2867
     50  CB       -10.7460    5.2150    9.8390 C.3    90  GLN90       0.0367
     51  CG        -9.6970    5.1830   10.9720 C.3    90  GLN90       0.0905
     52  CD        -8.9930    3.8400   11.1130 C.2    90  GLN90       0.2608
     53  OE1       -9.6320    2.8020   11.2630 O.2    90  GLN90      -0.2717
     54  NE2       -7.6640    3.8610   11.0640 N.am   90  GLN90      -0.0878
     55  N        -11.0150   -0.5420   10.8190 N.3    92  HIS92      -0.1241
     56  CA       -10.1330   -1.4960   10.1700 C.3    92  HIS92       0.1621
     57  C        -10.2030   -2.7670   10.9920 C.2    92  HIS92       0.2264
     58  O        -10.8610   -2.8080   12.0370 O.2    92  HIS92      -0.2867
     59  CB        -8.6940   -0.9870   10.1780 C.3    92  HIS92       0.0745
     60  CG        -8.1760   -0.7300   11.5560 C.ar   92  HIS92       0.0817
     61  ND1       -8.3700    0.4670   12.2090 N.ar   92  HIS92      -0.2268
     62  CD2       -7.5760   -1.5530   12.4490 C.ar   92  HIS92       0.1154
     63  CE1       -7.9170    0.3690   13.4460 C.ar   92  HIS92       0.1986
     64  NE2       -7.4310   -0.8470   13.6160 N.ar   92  HIS92      -0.2212
     65  N         -7.9340   -6.5880   12.2330 N.3    94  HIS94      -0.1241
     66  CA        -6.6750   -7.2830   12.4850 C.3    94  HIS94       0.1621
     67  C         -7.1340   -8.7340   12.3580 C.2    94  HIS94       0.2264
     68  O         -8.1840   -9.0920   12.8890 O.2    94  HIS94      -0.2867
     69  CB        -6.1600   -7.0260   13.9020 C.3    94  HIS94       0.0745
     70  CG        -5.8730   -5.5870   14.1930 C.ar   94  HIS94       0.0817
     71  ND1       -4.6140   -5.0370   14.0700 N.ar   94  HIS94      -0.2268
     72  CD2       -6.6840   -4.5860   14.6060 C.ar   94  HIS94       0.1154
     73  CE1       -4.6630   -3.7570   14.3990 C.ar   94  HIS94       0.1986
     74  NE2       -5.9080   -3.4590   14.7280 N.ar   94  HIS94      -0.2212
     75  N        -11.9480   -2.6560   14.6630 N.3   117  HIS117     -0.1241
     76  CA       -11.6970   -1.4640   15.4600 C.3   117  HIS117      0.1621
     77  C        -12.3090   -0.2440   14.7960 C.2   117  HIS117      0.2264
     78  O        -11.9450    0.1040   13.6700 O.2   117  HIS117     -0.2867
     79  CB       -10.1890   -1.2470   15.6200 C.3   117  HIS117      0.0745
     80  CG        -9.5370   -2.2350   16.5330 C.ar  117  HIS117      0.0817
     81  ND1       -8.1740   -2.4470   16.5550 N.ar  117  HIS117     -0.2268
     82  CD2      -10.0630   -3.0630   17.4650 C.ar  117  HIS117      0.1154
     83  CE1       -7.8910   -3.3680   17.4590 C.ar  117  HIS117      0.1986
     84  NE2       -9.0190   -3.7580   18.0250 N.ar  117  HIS117     -0.2212
     85  N        -12.4990    3.5480   15.1290 N.3   119  VAL119     -0.1245
     86  CA       -11.7610    4.6380   15.7640 C.3   119  VAL119      0.1561
     87  C        -12.5070    5.9640   15.7650 C.2   119  VAL119      0.2260
     88  O        -12.9620    6.4210   14.7170 O.2   119  VAL119     -0.2867
     89  CB       -10.4050    4.8390   15.0480 C.3   119  VAL119      0.0252
     90  CG1       -9.5480    5.8430   15.8100 C.3   119  VAL119      0.0019
     91  CG2       -9.6840    3.5020   14.9140 C.3   119  VAL119      0.0019
     92  N         -8.6190   14.9650   14.6540 N.3   128  PHE128     -0.1241
     93  CA        -7.8950   13.7520   15.0060 C.3   128  PHE128      0.1605
     94  C         -6.4330   13.9850   15.3730 C.2   128  PHE128      0.2264
     95  O         -5.9280   13.4140   16.3450 O.2   128  PHE128     -0.2867
     96  CB        -7.9930   12.7510   13.8520 C.3   128  PHE128      0.0534
     97  CG        -7.1670   11.5180   14.0480 C.ar  128  PHE128     -0.0203
     98  CD1       -5.8480   11.4720   13.6040 C.ar  128  PHE128     -0.0042
     99  CD2       -7.6960   10.4080   14.7000 C.ar  128  PHE128     -0.0042
    100  CE1       -5.0700   10.3390   13.8090 C.ar  128  PHE128     -0.0003
    101  CE2       -6.9260    9.2720   14.9090 C.ar  128  PHE128     -0.0003
    102  CZ        -5.6100    9.2370   14.4620 C.ar  128  PHE128     -0.0000
    103  N         -8.8650    9.5790   22.0370 N.3   138  LEU138     -0.1245
    104  CA        -9.5540    8.6200   21.1870 C.3   138  LEU138      0.1561
    105  C        -10.3520    7.5910   21.9610 C.2   138  LEU138      0.2260
    106  O        -10.0770    7.3170   23.1280 O.2   138  LEU138     -0.2867
    107  CB        -8.5500    7.8660   20.3110 C.3   138  LEU138      0.0270
    108  CG        -7.6280    8.6100   19.3450 C.3   138  LEU138      0.0019
    109  CD1       -6.8390    7.5660   18.5430 C.3   138  LEU138      0.0001
    110  CD2       -8.4260    9.5080   18.4130 C.3   138  LEU138      0.0001
    111  N        -11.8090    3.7500   20.9620 N.3   140  VAL140     -0.1245
    112  CA       -11.8670    2.7420   19.9240 C.3   140  VAL140      0.1561
    113  C        -12.8200    1.6550   20.3690 C.2   140  VAL140      0.2260
    114  O        -12.6760    1.0940   21.4550 O.2   140  VAL140     -0.2867
    115  CB       -10.4830    2.1280   19.6370 C.3   140  VAL140      0.0252
    116  CG1      -10.6010    1.0880   18.5280 C.3   140  VAL140      0.0019
    117  CG2       -9.5070    3.2210   19.2260 C.3   140  VAL140      0.0019
    118  N         -2.8070    3.0020   21.0530 N.3   195  LEU195     -0.1231
    119  CA        -2.9440    2.5460   19.6830 C.3   195  LEU195      0.1693
    120  C         -2.1960    1.2180   19.7180 C.2   195  LEU195      0.2593
    121  O         -1.1780    1.1010   20.4100 O.2   195  LEU195     -0.2718
    122  CB        -2.2140    3.4860   18.7240 C.3   195  LEU195      0.0284
    123  CG        -2.9910    4.5570   17.9610 C.3   195  LEU195      0.0019
    124  CD1       -3.6100    5.5510   18.9240 C.3   195  LEU195      0.0001
    125  CD2       -2.0400    5.2540   16.9900 C.3   195  LEU195      0.0001
    126  N         -2.6770    0.2220   18.9800 N.am  196  THR196     -0.1939
    127  CA        -2.0010   -1.0730   18.9640 C.3   196  THR196      0.2028
    128  C         -0.9650   -1.1590   17.8420 C.2   196  THR196      0.2643
    129  O         -0.2930   -2.1780   17.6910 O.2   196  THR196     -0.2714
    130  CB        -2.9900   -2.2370   18.8120 C.3   196  THR196      0.1808
    131  OG1       -3.6010   -2.1780   17.5190 O.3   196  THR196     -0.2208
    132  CG2       -4.0540   -2.1790   19.9030 C.3   196  THR196      0.0379
    133  N         -0.8660   -0.1020   17.0420 N.am  197  THR197     -0.1937
    134  CA         0.1300   -0.0450   15.9750 C.3   197  THR197      0.2013
    135  C          0.9540    1.2030   16.2160 C.2   197  THR197      0.2484
    136  O          0.4990    2.1400   16.8700 O.2   197  THR197     -0.2729
    137  CB        -0.4790    0.1390   14.5690 C.3   197  THR197      0.1807
    138  OG1       -1.0700    1.4420   14.4790 O.3   197  THR197     -0.2208
    139  CG2       -1.5160   -0.9200   14.2710 C.3   197  THR197      0.0379
    140  N          2.1920    1.2250   15.7140 N.am  198  PRO198     -0.2726
    141  CA         2.9990    2.4290   15.9130 C.3   198  PRO198      0.1402
    142  C          2.1540    3.5950   15.3910 C.2   198  PRO198      0.2269
    143  O          1.3940    3.4330   14.4270 O.2   198  PRO198     -0.2865
    144  CB         4.2210    2.1510   15.0450 C.3   198  PRO198      0.0296
    145  CG         4.4200    0.6800   15.2530 C.3   198  PRO198      0.0237
    146  CD         2.9970    0.1290   15.1400 C.3   198  PRO198      0.0939
    147  N         -5.8970    6.2710   24.0360 N.3   204  VAL204     -0.1245
    148  CA        -7.1430    5.5520   23.7810 C.3   204  VAL204      0.1561
    149  C         -7.9430    5.0230   24.9580 C.2   204  VAL204      0.2260
    150  O         -7.3910    4.4550   25.8980 O.2   204  VAL204     -0.2867
    151  CB        -6.8780    4.3270   22.8640 C.3   204  VAL204      0.0252
    152  CG1       -8.1980    3.6580   22.4790 C.3   204  VAL204      0.0019
    153  CG2       -6.1030    4.7560   21.6310 C.3   204  VAL204      0.0019
    154  N        -10.3560    2.2730   25.5090 N.3   206  TRP206     -0.1241
    155  CA       -10.8250    1.0840   24.8270 C.3   206  TRP206      0.1605
    156  C        -12.1750    0.6090   25.3340 C.2   206  TRP206      0.2264
    157  O        -12.4240    0.5620   26.5370 O.2   206  TRP206     -0.2867
    158  CB        -9.8060   -0.0520   24.9650 C.3   206  TRP206      0.0550
    159  CG        -8.7000    0.0540   23.9870 C.ar  206  TRP206      0.0003
    160  CD1       -7.4830    0.6480   24.1730 C.ar  206  TRP206      0.0946
    161  CD2       -8.7370   -0.3740   22.6250 C.ar  206  TRP206      0.0152
    162  NE1       -6.7640    0.6180   23.0030 N.ar  206  TRP206     -0.2442
    163  CE2       -7.5110   -0.0050   22.0370 C.ar  206  TRP206      0.0810
    164  CE3       -9.6940   -1.0350   21.8410 C.ar  206  TRP206      0.0012
    165  CZ2       -7.2130   -0.2710   20.6990 C.ar  206  TRP206      0.0191
    166  CZ3       -9.3970   -1.3000   20.5080 C.ar  206  TRP206      0.0001
    167  CH2       -8.1690   -0.9200   19.9540 C.ar  206  TRP206      0.0015
@<TRIPOS>BOND
     1    15    16    1
     2    16    17    1
     3    16    19    1
     4    17    18    2
     5    41    40    2
     6    36    35    2
     7    19    20    1
     8    40    39    1
     9    38    39    1
    10    23    24    1
    11    35    34    1
    12    20    21    2
    13    20    22   am
    14    39    42    1
    15    33    34    1
    16    33    25   am
    17    34    37    1
    18    42    43    1
    19    24    25    1
    20    24    27    1
    21    25    26    2
    22    43    45   am
    23    43    44    2
    24    29    28   ar
    25    29    31   ar
    26    27    28    1
    27    28    30   ar
    28    31    32   ar
    29     4     3    2
    30    30    32   ar
    31    50    47    1
    32    50    51    1
    33     1     2    1
    34    56    59    1
    35    56    55    1
    36    56    57    1
    37    59    60    1
    38    47    48    1
    39    47    46    1
    40     3     2    1
    41    51    52    1
    42    57    58    2
    43    54    52   am
    44     2     5    1
    45    48    49    2
    46    52    53    2
    47     9    10   ar
    48     9     7   ar
    49    12    10   ar
    50    12    14   ar
    51    10     8   ar
    52     7     6   ar
    53    60    61   ar
    54    60    62   ar
    55    14    13   ar
    56     8     6   ar
    57     8    11   ar
    58     6     5    1
    59    13    11   ar
    60    61    63   ar
    61    65    66    1
    62    67    66    1
    63    67    68    2
    64    62    64   ar
    65    66    69    1
    66    63    64   ar
    67    98   100   ar
    68    98    97   ar
    69    78    77    2
    70   100   102   ar
    71    96    97    1
    72    96    93    1
    73    69    70    1
    74    97    99   ar
    75    71    70   ar
    76    71    73   ar
    77    70    72   ar
    78   139   137    1
    79    73    74   ar
    80   143   142    2
    81   102   101   ar
    82   138   137    1
    83   137   134    1
    84    72    74   ar
    85    92    93    1
    86    75    76    1
    87    99   101   ar
    88    88    87    2
    89    77    76    1
    90    91    89    1
    91    93    94    1
    92   144   145    1
    93   144   141    1
    94    89    86    1
    95    89    90    1
    96    85    86    1
    97   146   145    1
    98   146   140    1
    99    94    95    2
   100   142   141    1
   101    76    79    1
   102    79    80    1
   103   140   141    1
   104   140   135   am
   105    86    87    1
   106   134   135    1
   107   134   133    1
   108   135   136    2
   109    80    81   ar
   110    80    82   ar
   111    81    83   ar
   112   125   123    1
   113   133   128   am
   114    83    84   ar
   115    82    84   ar
   116   131   130    1
   117   129   128    2
   118   128   127    1
   119   123   122    1
   120   123   124    1
   121   110   108    1
   122   116   115    1
   123   109   108    1
   124   122   119    1
   125   130   127    1
   126   130   132    1
   127   127   126    1
   128   126   120   am
   129   117   115    1
   130   108   107    1
   131   115   112    1
   132   119   120    1
   133   119   118    1
   134   120   121    2
   135   112   113    1
   136   112   111    1
   137   167   166   ar
   138   167   165   ar
   139   107   104    1
   140   113   114    2
   141   166   164   ar
   142   165   163   ar
   143   104   105    1
   144   104   103    1
   145   153   151    1
   146   164   161   ar
   147   105   106    2
   148   163   161   ar
   149   163   162   ar
   150   152   151    1
   151   161   159   ar
   152   151   148    1
   153   162   160   ar
   154   148   147    1
   155   148   149    1
   156   159   160   ar
   157   159   158    1
   158   155   158    1
   159   155   156    1
   160   155   154    1
   161   149   150    2
   162   156   157    2
