@<TRIPOS>MOLECULE
tmp/2powA00.pdb
 189 184 0 0 0
SMALL
GASTEIGER

@<TRIPOS>ATOM
      1  N          8.2190   -0.3270   10.3400 N.3     2  TRP2       -0.1241
      2  CA         7.6280   -1.2940   11.2560 C.3     2  TRP2        0.1605
      3  C          6.6110   -2.1610   10.5360 C.2     2  TRP2        0.2264
      4  O          6.0050   -1.7380    9.5490 O.2     2  TRP2       -0.2867
      5  CB         6.9470   -0.5900   12.4370 C.3     2  TRP2        0.0550
      6  CG         5.7080    0.1740   12.0740 C.ar    2  TRP2        0.0003
      7  CD1        5.6210    1.4990   11.7470 C.ar    2  TRP2        0.0946
      8  CD2        4.3740   -0.3420   12.0160 C.ar    2  TRP2        0.0152
      9  NE1        4.3130    1.8390   11.4950 N.ar    2  TRP2       -0.2442
     10  CE2        3.5270    0.7280   11.6530 C.ar    2  TRP2        0.0810
     11  CE3        3.8120   -1.6070   12.2370 C.ar    2  TRP2        0.0012
     12  CZ2        2.1440    0.5720   11.5050 C.ar    2  TRP2        0.0191
     13  CZ3        2.4360   -1.7620   12.0890 C.ar    2  TRP2        0.0001
     14  CH2        1.6190   -0.6770   11.7270 C.ar    2  TRP2        0.0015
     15  N         -3.1760    0.2110    3.6330 N.3    59  ASN59      -0.1240
     16  CA        -2.0230    0.9840    4.0880 C.3    59  ASN59       0.1653
     17  C         -0.7450    0.1820    4.3000 C.2    59  ASN59       0.2266
     18  O          0.2070    0.6700    4.9100 O.2    59  ASN59      -0.2867
     19  CB        -2.3620    1.7390    5.3780 C.3    59  ASN59       0.1155
     20  CG        -2.8610    0.8250    6.4740 C.2    59  ASN59       0.2627
     21  OD1       -2.4460   -0.3280    6.5740 O.2    59  ASN59      -0.2716
     22  ND2       -3.7460    1.3430    7.3160 N.am   59  ASN59      -0.0877
     23  N         -0.4210   -2.5910    6.0930 N.3    61  HIS61      -0.1226
     24  CA        -0.4770   -3.4830    7.2450 C.3    61  HIS61       0.1752
     25  C         -1.9030   -3.9400    7.5350 C.2    61  HIS61       0.2595
     26  O         -2.1130   -4.9490    8.2020 O.2    61  HIS61      -0.2718
     27  CB         0.1530   -2.8420    8.4880 C.3    61  HIS61       0.0759
     28  CG        -0.4830   -1.5560    8.9070 C.ar   61  HIS61       0.0818
     29  ND1        0.0230   -0.3270    8.5420 N.ar   61  HIS61      -0.2268
     30  CD2       -1.5690   -1.3030    9.6730 C.ar   61  HIS61       0.1154
     31  CE1       -0.7240    0.6280    9.0670 C.ar   61  HIS61       0.1986
     32  NE2       -1.6970    0.0630    9.7580 N.ar   61  HIS61      -0.2212
     33  N         -2.8740   -3.1950    7.0140 N.am   62  ALA62      -0.1980
     34  CA        -4.2940   -3.5110    7.1600 C.3    62  ALA62       0.1597
     35  C         -5.0310   -2.6050    6.1750 C.2    62  ALA62       0.2287
     36  O         -4.4110   -2.0300    5.2810 O.2    62  ALA62      -0.2864
     37  CB        -4.7580   -3.2360    8.5860 C.3    62  ALA62       0.0319
     38  N         -8.0700    0.5570    5.8860 N.3    64  ASN64      -0.1240
     39  CA        -8.9180    1.5080    6.5940 C.3    64  ASN64       0.1653
     40  C        -10.1230    1.9520    5.7810 C.2    64  ASN64       0.2266
     41  O         -9.9960    2.3040    4.6090 O.2    64  ASN64      -0.2867
     42  CB        -8.1380    2.7740    6.9740 C.3    64  ASN64       0.1155
     43  CG        -7.0570    2.5280    8.0090 C.2    64  ASN64       0.2627
     44  OD1       -7.1170    1.5710    8.7790 O.2    64  ASN64      -0.2716
     45  ND2       -6.0690    3.4190    8.0500 N.am   64  ASN64      -0.0877
     46  N        -13.8490    8.2630   12.8170 N.3    88  ILE88      -0.1231
     47  CA       -12.9890    8.6950   11.7270 C.3    88  ILE88       0.1692
     48  C        -12.6710    7.5480   10.7700 C.2    88  ILE88       0.2591
     49  O        -12.5390    7.7570    9.5630 O.2    88  ILE88      -0.2718
     50  CB       -11.6730    9.3210   12.2690 C.3    88  ILE88       0.0266
     51  CG1      -10.7420    9.6680   11.1030 C.3    88  ILE88       0.0019
     52  CG2      -10.9980    8.3670   13.2540 C.3    88  ILE88       0.0020
     53  CD1       -9.5550   10.5230   11.4960 C.3    88  ILE88       0.0001
     54  N        -12.5730    6.3320   11.3030 N.am   89  GLN89      -0.1979
     55  CA       -12.2680    5.1750   10.4700 C.3    89  GLN89       0.1601
     56  C        -12.4020    3.8730   11.2360 C.2    89  GLN89       0.2287
     57  O        -12.5060    3.8690   12.4630 O.2    89  GLN89      -0.2864
     58  CB       -10.8280    5.2710    9.9390 C.3    89  GLN89       0.0394
     59  CG        -9.7390    5.2800   11.0390 C.3    89  GLN89       0.0908
     60  CD        -8.9790    3.9610   11.1610 C.2    89  GLN89       0.2608
     61  OE1       -9.5690    2.9010   11.3720 O.2    89  GLN89      -0.2717
     62  NE2       -7.6580    4.0290   11.0300 N.am   89  GLN89      -0.0878
     63  N        -11.0220   -0.4750   10.9580 N.3    91  HIS91      -0.1241
     64  CA       -10.1420   -1.4210   10.3030 C.3    91  HIS91       0.1621
     65  C        -10.2180   -2.6960   11.1140 C.2    91  HIS91       0.2264
     66  O        -10.9030   -2.7450   12.1390 O.2    91  HIS91      -0.2867
     67  CB        -8.7040   -0.9090   10.3100 C.3    91  HIS91       0.0745
     68  CG        -8.1730   -0.6570   11.6860 C.ar   91  HIS91       0.0817
     69  ND1       -8.3690    0.5340   12.3520 N.ar   91  HIS91      -0.2268
     70  CD2       -7.5330   -1.4740   12.5560 C.ar   91  HIS91       0.1154
     71  CE1       -7.8760    0.4380   13.5740 C.ar   91  HIS91       0.1986
     72  NE2       -7.3630   -0.7710   13.7230 N.ar   91  HIS91      -0.2212
     73  N         -7.9580   -6.5210   12.3830 N.3    93  HIS93      -0.1241
     74  CA        -6.7100   -7.2240   12.6570 C.3    93  HIS93       0.1621
     75  C         -7.1710   -8.6760   12.5230 C.2    93  HIS93       0.2264
     76  O         -8.2180   -9.0390   13.0580 O.2    93  HIS93      -0.2867
     77  CB        -6.2280   -6.9540   14.0860 C.3    93  HIS93       0.0745
     78  CG        -5.8820   -5.5210   14.3420 C.ar   93  HIS93       0.0817
     79  ND1       -4.6140   -5.0130   14.1500 N.ar   93  HIS93      -0.2268
     80  CD2       -6.6460   -4.4810   14.7520 C.ar   93  HIS93       0.1154
     81  CE1       -4.6120   -3.7220   14.4360 C.ar   93  HIS93       0.1986
     82  NE2       -5.8330   -3.3750   14.8020 N.ar   93  HIS93      -0.2212
     83  N        -11.9220   -2.6280   14.7830 N.3   116  HIS116     -0.1241
     84  CA       -11.6590   -1.4420   15.5710 C.3   116  HIS116      0.1621
     85  C        -12.2860   -0.2260   14.9100 C.2   116  HIS116      0.2264
     86  O        -11.9190    0.1420   13.7900 O.2   116  HIS116     -0.2867
     87  CB       -10.1480   -1.2380   15.7200 C.3   116  HIS116      0.0745
     88  CG        -9.5000   -2.2280   16.6400 C.ar  116  HIS116      0.0817
     89  ND1       -8.1400   -2.4540   16.6540 N.ar  116  HIS116     -0.2268
     90  CD2      -10.0240   -3.0290   17.5980 C.ar  116  HIS116      0.1154
     91  CE1       -7.8550   -3.3520   17.5800 C.ar  116  HIS116      0.1986
     92  NE2       -8.9790   -3.7170   18.1680 N.ar  116  HIS116     -0.2212
     93  N        -12.4870    3.5040   15.2700 N.3   118  VAL118     -0.1245
     94  CA       -11.7350    4.5790   15.9070 C.3   118  VAL118      0.1561
     95  C        -12.4770    5.9100   15.9130 C.2   118  VAL118      0.2260
     96  O        -12.9380    6.3740   14.8670 O.2   118  VAL118     -0.2867
     97  CB       -10.3860    4.7700   15.1910 C.3   118  VAL118      0.0252
     98  CG1       -9.4930    5.7150   15.9870 C.3   118  VAL118      0.0019
     99  CG2       -9.7230    3.4190   14.9800 C.3   118  VAL118      0.0019
    100  N         -8.1060   15.1140   14.7850 N.3   127  PHE127     -0.1241
    101  CA        -7.5150   13.8400   15.1550 C.3   127  PHE127      0.1605
    102  C         -6.0550   13.9510   15.5770 C.2   127  PHE127      0.2264
    103  O         -5.6440   13.3370   16.5580 O.2   127  PHE127     -0.2867
    104  CB        -7.6590   12.8550   13.9930 C.3   127  PHE127      0.0534
    105  CG        -7.1340   11.4880   14.2940 C.ar  127  PHE127     -0.0203
    106  CD1       -5.8210   11.1510   13.9950 C.ar  127  PHE127     -0.0042
    107  CD2       -7.9530   10.5370   14.8900 C.ar  127  PHE127     -0.0042
    108  CE1       -5.3290    9.8840   14.2830 C.ar  127  PHE127     -0.0003
    109  CE2       -7.4720    9.2670   15.1850 C.ar  127  PHE127     -0.0003
    110  CZ        -6.1580    8.9400   14.8810 C.ar  127  PHE127     -0.0000
    111  N         -4.8250   12.6130   19.4240 N.3   131  VAL131     -0.1245
    112  CA        -3.8980   11.5250   19.7510 C.3   131  VAL131      0.1561
    113  C         -2.7960   11.9200   20.7320 C.2   131  VAL131      0.2260
    114  O         -2.0870   11.0580   21.2510 O.2   131  VAL131     -0.2867
    115  CB        -3.2460   10.9100   18.4850 C.3   131  VAL131      0.0252
    116  CG1       -4.3220   10.2960   17.6010 C.3   131  VAL131      0.0019
    117  CG2       -2.4610   11.9640   17.7240 C.3   131  VAL131      0.0019
    118  N         -8.7940    9.5810   22.1930 N.3   137  LEU137     -0.1245
    119  CA        -9.4970    8.6230   21.3520 C.3   137  LEU137      0.1561
    120  C        -10.3160    7.6110   22.1320 C.2   137  LEU137      0.2260
    121  O        -10.0870    7.3750   23.3180 O.2   137  LEU137     -0.2867
    122  CB        -8.5040    7.8450   20.4780 C.3   137  LEU137      0.0270
    123  CG        -7.5790    8.5430   19.4810 C.3   137  LEU137      0.0019
    124  CD1       -6.8780    7.4650   18.6510 C.3   137  LEU137      0.0001
    125  CD2       -8.3530    9.4770   18.5710 C.3   137  LEU137      0.0001
    126  N        -11.7890    3.7450   21.1310 N.3   139  VAL139     -0.1245
    127  CA       -11.8760    2.7330   20.0990 C.3   139  VAL139      0.1561
    128  C        -12.8360    1.6570   20.5570 C.2   139  VAL139      0.2260
    129  O        -12.7160    1.1230   21.6690 O.2   139  VAL139     -0.2867
    130  CB       -10.5050    2.0980   19.7830 C.3   139  VAL139      0.0252
    131  CG1      -10.6620    1.0540   18.6680 C.3   139  VAL139      0.0019
    132  CG2       -9.5260    3.1810   19.3470 C.3   139  VAL139      0.0019
    133  N         -2.8110    3.0360   21.2050 N.3   194  LEU194     -0.1231
    134  CA        -2.9870    2.5830   19.8350 C.3   194  LEU194      0.1693
    135  C         -2.2390    1.2500   19.8760 C.2   194  LEU194      0.2593
    136  O         -1.2420    1.1270   20.5920 O.2   194  LEU194     -0.2718
    137  CB        -2.2730    3.5030   18.8400 C.3   194  LEU194      0.0284
    138  CG        -2.4340    5.0230   18.8890 C.3   194  LEU194      0.0019
    139  CD1       -1.7010    5.6130   17.6840 C.3   194  LEU194      0.0001
    140  CD2       -3.8870    5.4260   18.8730 C.3   194  LEU194      0.0001
    141  N         -2.6930    0.2590   19.1180 N.am  195  THR195     -0.1939
    142  CA        -2.0140   -1.0320   19.1140 C.3   195  THR195      0.2028
    143  C         -0.9590   -1.1230   18.0170 C.2   195  THR195      0.2643
    144  O         -0.2970   -2.1510   17.8740 O.2   195  THR195     -0.2714
    145  CB        -2.9990   -2.1810   18.9380 C.3   195  THR195      0.1808
    146  OG1       -3.6120   -2.0810   17.6480 O.3   195  THR195     -0.2208
    147  CG2       -4.0600   -2.1330   20.0300 C.3   195  THR195      0.0379
    148  N         -0.8280   -0.0610   17.2270 N.am  196  THR196     -0.1937
    149  CA         0.1950   -0.0090   16.1760 C.3   196  THR196      0.2013
    150  C          1.0300    1.2390   16.4100 C.2   196  THR196      0.2484
    151  O          0.5920    2.1720   17.0840 O.2   196  THR196     -0.2729
    152  CB        -0.3920    0.1450   14.7510 C.3   196  THR196      0.1807
    153  OG1       -0.9090    1.4740   14.5880 O.3   196  THR196     -0.2208
    154  CG2       -1.4990   -0.8640   14.5030 C.3   196  THR196      0.0379
    155  N          2.2590    1.2640   15.8790 N.am  197  PRO197     -0.2715
    156  CA         3.0680    2.4650   16.0740 C.3   197  PRO197      0.1521
    157  C          2.2020    3.6230   15.5710 C.2   197  PRO197      0.2440
    158  O          1.4230    3.4460   14.6290 O.2   197  PRO197     -0.2731
    159  CB         4.2670    2.2060   15.1750 C.3   197  PRO197      0.0310
    160  CG         4.4820    0.7290   15.3560 C.3   197  PRO197      0.0237
    161  CD         3.0570    0.1690   15.2920 C.3   197  PRO197      0.0939
    162  N          2.3410    4.8220   16.1570 N.am  198  PRO198     -0.2727
    163  CA         3.2300    5.2360   17.2460 C.3   198  PRO198      0.1402
    164  C          2.8820    4.7860   18.6700 C.2   198  PRO198      0.2269
    165  O          3.4880    5.2600   19.6280 O.2   198  PRO198     -0.2865
    166  CB         3.2480    6.7550   17.1030 C.3   198  PRO198      0.0296
    167  CG         1.8610    7.0490   16.6600 C.3   198  PRO198      0.0237
    168  CD         1.6080    5.9840   15.6170 C.3   198  PRO198      0.0939
    169  N         -5.8970    6.2400   24.1840 N.3   203  VAL203     -0.1245
    170  CA        -7.1490    5.5300   23.9560 C.3   203  VAL203      0.1561
    171  C         -7.9460    5.0120   25.1360 C.2   203  VAL203      0.2260
    172  O         -7.4010    4.4180   26.0670 O.2   203  VAL203     -0.2867
    173  CB        -6.9180    4.3060   23.0330 C.3   203  VAL203      0.0252
    174  CG1       -8.2620    3.6700   22.6660 C.3   203  VAL203      0.0019
    175  CG2       -6.1490    4.7210   21.7810 C.3   203  VAL203      0.0019
    176  N        -10.3530    2.2940   25.7300 N.3   205  TRP205     -0.1241
    177  CA       -10.8330    1.1170   25.0290 C.3   205  TRP205      0.1605
    178  C        -12.1930    0.6510   25.5120 C.2   205  TRP205      0.2264
    179  O        -12.4600    0.6020   26.7130 O.2   205  TRP205     -0.2867
    180  CB        -9.8280   -0.0380   25.1470 C.3   205  TRP205      0.0550
    181  CG        -8.7130    0.0670   24.1640 C.ar  205  TRP205      0.0003
    182  CD1       -7.4990    0.6630   24.3540 C.ar  205  TRP205      0.0946
    183  CD2       -8.7380   -0.3690   22.8020 C.ar  205  TRP205      0.0152
    184  NE1       -6.7680    0.6290   23.1930 N.ar  205  TRP205     -0.2442
    185  CE2       -7.5050    0.0000   22.2230 C.ar  205  TRP205      0.0810
    186  CE3       -9.6870   -1.0360   22.0120 C.ar  205  TRP205      0.0012
    187  CZ2       -7.1930   -0.2750   20.8870 C.ar  205  TRP205      0.0191
    188  CZ3       -9.3770   -1.3110   20.6840 C.ar  205  TRP205      0.0001
    189  CH2       -8.1380   -0.9290   20.1360 C.ar  205  TRP205      0.0015
@<TRIPOS>BOND
     1    15    16    1
     2    16    17    1
     3    16    19    1
     4    17    18    2
     5    41    40    2
     6    36    35    2
     7    19    20    1
     8    40    39    1
     9    38    39    1
    10    23    24    1
    11    35    34    1
    12    20    21    2
    13    20    22   am
    14    39    42    1
    15    42    43    1
    16    33    34    1
    17    33    25   am
    18    34    37    1
    19    24    25    1
    20    24    27    1
    21    25    26    2
    22    43    45   am
    23    43    44    2
    24    27    28    1
    25    29    28   ar
    26    29    31   ar
    27    28    30   ar
    28    31    32   ar
    29     4     3    2
    30    49    48    2
    31    30    32   ar
    32    58    55    1
    33    58    59    1
    34    64    67    1
    35    64    63    1
    36    64    65    1
    37    67    68    1
    38     1     2    1
    39    55    56    1
    40    55    54    1
    41     3     2    1
    42    48    54   am
    43    48    47    1
    44    62    60   am
    45    59    60    1
    46    51    53    1
    47    51    50    1
    48    65    66    2
    49    60    61    2
    50    56    57    2
    51     2     5    1
    52     9    10   ar
    53     9     7   ar
    54    12    10   ar
    55    12    14   ar
    56    10     8   ar
    57    68    69   ar
    58    68    70   ar
    59    47    50    1
    60    47    46    1
    61    14    13   ar
    62     7     6   ar
    63     8     6   ar
    64     8    11   ar
    65     6     5    1
    66    13    11   ar
    67    50    52    1
    68    69    71   ar
    69    73    74    1
    70    75    74    1
    71    75    76    2
    72    70    72   ar
    73    74    77    1
    74    71    72   ar
    75    86    85    2
    76   104   105    1
    77   104   101    1
    78   106   108   ar
    79   106   105   ar
    80    77    78    1
    81    79    78   ar
    82    79    81   ar
    83   108   110   ar
    84   105   107   ar
    85    78    80   ar
    86    81    82   ar
    87   154   152    1
    88   153   152    1
    89   158   157    2
    90   152   149    1
    91    80    82   ar
    92    83    84    1
    93   100   101    1
    94    96    95    2
    95   110   109   ar
    96   107   109   ar
    97    85    84    1
    98    99    97    1
    99   101   102    1
   100   159   160    1
   101   159   156    1
   102    97    94    1
   103    97    98    1
   104    93    94    1
   105   161   160    1
   106   161   155    1
   107   157   156    1
   108   157   162   am
   109    84    87    1
   110   102   103    2
   111   168   162    1
   112   168   167    1
   113    87    88    1
   114   155   156    1
   115   155   150   am
   116    94    95    1
   117   162   163    1
   118   149   150    1
   119   149   148    1
   120   150   151    2
   121    88    89   ar
   122    88    90   ar
   123    89    91   ar
   124   167   166    1
   125   166   163    1
   126   148   143   am
   127   163   164    1
   128    91    92   ar
   129    90    92   ar
   130   116   115    1
   131   146   145    1
   132   139   138    1
   133   117   115    1
   134   144   143    2
   135   143   142    1
   136   115   112    1
   137   125   123    1
   138   124   123    1
   139   131   130    1
   140   164   165    2
   141   137   138    1
   142   137   134    1
   143   140   138    1
   144   145   142    1
   145   145   147    1
   146   142   141    1
   147   141   135   am
   148   132   130    1
   149   111   112    1
   150   123   122    1
   151   112   113    1
   152   130   127    1
   153   134   135    1
   154   134   133    1
   155   135   136    2
   156   127   128    1
   157   127   126    1
   158   189   188   ar
   159   189   187   ar
   160   122   119    1
   161   128   129    2
   162   188   186   ar
   163   113   114    2
   164   187   185   ar
   165   119   120    1
   166   119   118    1
   167   175   173    1
   168   186   183   ar
   169   120   121    2
   170   185   183   ar
   171   185   184   ar
   172   174   173    1
   173   183   181   ar
   174   173   170    1
   175   184   182   ar
   176   170   169    1
   177   170   171    1
   178   181   182   ar
   179   181   180    1
   180   177   180    1
   181   177   178    1
   182   177   176    1
   183   171   172    2
   184   178   179    2
