@<TRIPOS>MOLECULE
tmp/2poyB00.pdb
 184 179 0 0 0
SMALL
GASTEIGER

@<TRIPOS>ATOM
      1  N        -13.4380    3.5160  -33.5550 N.3    65  ARG65      -0.1245
      2  CA       -12.6840    2.2930  -33.8350 C.3    65  ARG65       0.1563
      3  C        -13.6370    1.1550  -34.1770 C.2    65  ARG65       0.2260
      4  O        -14.5360    0.8230  -33.4090 O.2    65  ARG65      -0.2867
      5  CB       -11.7440    1.9350  -32.6480 C.3    65  ARG65       0.0307
      6  CG       -10.8020    0.7800  -32.9000 C.3    65  ARG65       0.0489
      7  CD        -9.6650    0.7250  -31.8350 C.3    65  ARG65       0.2205
      8  NE        -8.8490   -0.4910  -31.9640 N.pl3  65  ARG65      -0.0865
      9  CZ        -9.0750   -1.6140  -31.2770 C.cat  65  ARG65       0.5346
     10  NH1      -10.0940   -1.6880  -30.4300 N.pl3  65  ARG65       0.1354
     11  NH2       -8.2840   -2.6540  -31.4340 N.pl3  65  ARG65       0.1354
     12  N        -13.8760   -2.7020  -36.1370 N.3    67  ILE67      -0.1231
     13  CA       -13.1620   -3.8380  -36.7000 C.3    67  ILE67       0.1678
     14  C        -14.2120   -4.8620  -37.1170 C.2    67  ILE67       0.2434
     15  O        -14.9430   -5.3610  -36.2710 O.2    67  ILE67      -0.2733
     16  CB       -12.1090   -4.4370  -35.6960 C.3    67  ILE67       0.0265
     17  CG1      -11.0130   -3.4010  -35.4040 C.3    67  ILE67       0.0019
     18  CG2      -11.5160   -5.7600  -36.2380 C.3    67  ILE67       0.0020
     19  CD1      -10.0810   -3.7340  -34.2720 C.3    67  ILE67       0.0001
     20  N        -14.3480   -5.1110  -38.4380 N.am   68  PRO68      -0.2718
     21  CA       -15.3400   -6.0900  -38.9070 C.3    68  PRO68       0.1535
     22  C        -15.0420   -7.4610  -38.3320 C.2    68  PRO68       0.2598
     23  O        -13.8810   -7.7910  -38.0930 O.2    68  PRO68      -0.2715
     24  CB       -15.1470   -6.1110  -40.4270 C.3    68  PRO68       0.0310
     25  CG       -14.4810   -4.8200  -40.7430 C.3    68  PRO68       0.0237
     26  CD       -13.6130   -4.4940  -39.5590 C.3    68  PRO68       0.0939
     27  N        -16.1040   -8.2190  -38.0940 N.am   69  GLN69      -0.1964
     28  CA       -16.0170   -9.5450  -37.4860 C.3    69  GLN69       0.1733
     29  C        -15.4460   -9.5180  -36.0540 C.2    69  GLN69       0.2616
     30  O        -14.8440  -10.4840  -35.5890 O.2    69  GLN69      -0.2715
     31  CB       -15.2400  -10.5150  -38.3980 C.3    69  GLN69       0.0408
     32  CG       -15.9880  -10.9670  -39.6750 C.3    69  GLN69       0.0908
     33  CD       -16.0630   -9.9030  -40.7800 C.2    69  GLN69       0.2608
     34  OE1      -15.1040   -9.6930  -41.5500 O.2    69  GLN69      -0.2717
     35  NE2      -17.2210   -9.2410  -40.8760 N.am   69  GLN69      -0.0878
     36  N        -15.6520   -8.4090  -35.3430 N.am   70  PHE70      -0.1960
     37  CA       -15.1310   -8.2650  -33.9800 C.3    70  PHE70       0.1771
     38  C        -16.0480   -7.3670  -33.1380 C.2    70  PHE70       0.2619
     39  O        -16.8730   -7.8580  -32.3450 O.2    70  PHE70      -0.2715
     40  CB       -13.6690   -7.7740  -34.0040 C.3    70  PHE70       0.0574
     41  CG       -13.0700   -7.5270  -32.6450 C.ar   70  PHE70      -0.0200
     42  CD1      -13.4900   -8.2450  -31.5110 C.ar   70  PHE70      -0.0042
     43  CD2      -12.0600   -6.5770  -32.4890 C.ar   70  PHE70      -0.0042
     44  CE1      -12.9120   -7.9940  -30.2410 C.ar   70  PHE70      -0.0003
     45  CE2      -11.4670   -6.3420  -31.2490 C.ar   70  PHE70      -0.0003
     46  CZ       -11.8960   -7.0580  -30.1070 C.ar   70  PHE70      -0.0000
     47  N        -15.9630   -6.0500  -33.3350 N.am   71  MET71      -0.1977
     48  CA       -16.6800   -5.1270  -32.4850 C.3    71  MET71       0.1605
     49  C        -16.6700   -3.7120  -33.0630 C.2    71  MET71       0.2287
     50  O        -15.8570   -3.4070  -33.9580 O.2    71  MET71      -0.2864
     51  CB       -16.0800   -5.1220  -31.0640 C.3    71  MET71       0.0413
     52  CG       -14.6070   -4.6870  -30.9860 C.3    71  MET71       0.0598
     53  SD       -14.4440   -2.8850  -30.8290 S.3    71  MET71      -0.1393
     54  CE       -13.0610   -2.6370  -31.9740 C.3    71  MET71       0.0692
     55  N        -16.4340    0.2920  -31.5040 N.3    73  GLN73      -0.1245
     56  CA       -16.0300    0.9570  -30.2570 C.3    73  GLN73       0.1566
     57  C        -16.3130    2.4330  -30.3070 C.2    73  GLN73       0.2260
     58  O        -15.9490    3.1050  -31.2850 O.2    73  GLN73      -0.2867
     59  CB       -14.5240    0.6960  -29.9840 C.3    73  GLN73       0.0367
     60  CG       -13.9500    1.4100  -28.7770 C.3    73  GLN73       0.0905
     61  CD       -12.4680    1.0890  -28.5870 C.2    73  GLN73       0.2608
     62  OE1      -11.8980    0.2530  -29.3170 O.2    73  GLN73      -0.2717
     63  NE2      -11.8460    1.7410  -27.6200 N.am   73  GLN73      -0.0878
     64  N        -10.6220    9.8520  -30.0110 N.3    81  ASP81      -0.1225
     65  CA        -9.6690    8.9710  -30.6700 C.3    81  ASP81       0.1805
     66  C         -9.2540    7.7580  -29.8410 C.2    81  ASP81       0.2598
     67  O         -8.3510    7.0250  -30.2440 O.2    81  ASP81      -0.2718
     68  CB        -8.4060    9.7810  -31.0260 C.3    81  ASP81       0.1424
     69  CG        -7.6970   10.3740  -29.7870 C.2    81  ASP81       0.3668
     70  OD1       -8.0640   10.0770  -28.6230 O.co2  81  ASP81      -0.2456
     71  OD2       -6.7390   11.1670  -29.9820 O.co2  81  ASP81      -0.2456
     72  N         -9.8860    7.5730  -28.6860 N.am   82  GLY82      -0.1942
     73  CA        -9.5740    6.4270  -27.8160 C.3    82  GLY82       0.2014
     74  C         -8.7260    6.8320  -26.6250 C.2    82  GLY82       0.2640
     75  O         -8.5510    6.0510  -25.6670 O.2    82  GLY82      -0.2714
     76  N         -8.2420    8.0730  -26.6210 N.am   83  THR83      -0.1936
     77  CA        -7.3830    8.4840  -25.5020 C.3    83  THR83       0.2028
     78  C         -8.1630    9.1220  -24.3540 C.2    83  THR83       0.2642
     79  O         -7.5880    9.4280  -23.3140 O.2    83  THR83      -0.2714
     80  CB        -6.2230    9.3970  -25.9430 C.3    83  THR83       0.1808
     81  OG1       -6.7620   10.6360  -26.4390 O.3    83  THR83      -0.2208
     82  CG2       -5.3700    8.7180  -27.0180 C.3    83  THR83       0.0379
     83  N         -9.4720    9.2980  -24.5210 N.am   84  GLY84      -0.1954
     84  CA       -10.2150   10.0900  -23.5570 C.3    84  GLY84       0.1869
     85  C        -11.4550    9.3970  -23.0370 C.2    84  GLY84       0.2309
     86  O        -11.5380    8.1680  -23.0100 O.2    84  GLY84      -0.2863
     87  N        -14.6320   -0.7940  -22.7540 N.3   110  ALA110     -0.1231
     88  CA       -13.2200   -0.6710  -23.1590 C.3   110  ALA110      0.1694
     89  C        -12.4480   -0.1920  -21.9520 C.2   110  ALA110      0.2592
     90  O        -13.0030    0.4420  -21.0490 O.2   110  ALA110     -0.2718
     91  CB       -13.0660    0.3630  -24.2730 C.3   110  ALA110      0.0304
     92  N        -11.1420   -0.4330  -21.9490 N.am  111  ASN111     -0.1960
     93  CA       -10.3320   -0.0030  -20.8290 C.3   111  ASN111      0.1819
     94  C         -8.8660    0.0450  -21.2040 C.2   111  ASN111      0.2621
     95  O         -8.5040   -0.2750  -22.3360 O.2   111  ASN111     -0.2715
     96  CB       -10.5920   -0.8870  -19.5650 C.3   111  ASN111      0.1195
     97  CG       -10.2060   -2.3460  -19.7700 C.2   111  ASN111      0.2630
     98  OD1       -9.1420   -2.6450  -20.3120 O.2   111  ASN111     -0.2716
     99  ND2      -11.0680   -3.2630  -19.3330 N.am  111  ASN111     -0.0877
    100  N         -8.0370    0.4520  -20.2490 N.am  112  ALA112     -0.1963
    101  CA        -6.5850    0.4770  -20.4530 C.3   112  ALA112      0.1728
    102  C         -5.8610   -0.3150  -19.3600 C.2   112  ALA112      0.2616
    103  O         -4.8490    0.1340  -18.8130 O.2   112  ALA112     -0.2715
    104  CB        -6.1050    1.9160  -20.5170 C.3   112  ALA112      0.0334
    105  N         -6.3770   -1.5150  -19.0920 N.am  113  GLY113     -0.1955
    106  CA        -5.9730   -2.3320  -17.9390 C.3   113  GLY113      0.1869
    107  C         -7.0340   -2.4500  -16.8410 C.2   113  GLY113      0.2309
    108  O         -8.1280   -1.8640  -16.9360 O.2   113  GLY113     -0.2863
    109  N         -9.9350    0.5880  -15.0140 N.3   116  THR116     -0.1218
    110  CA        -9.7650    1.8360  -15.7920 C.3   116  THR116      0.1862
    111  C        -11.0240    2.2140  -16.6220 C.2   116  THR116      0.2287
    112  O        -10.9290    2.8830  -17.6800 O.2   116  THR116     -0.2866
    113  CB        -8.4940    1.8020  -16.7020 C.3   116  THR116      0.1770
    114  OG1       -8.5050    0.6530  -17.5620 O.3   116  THR116     -0.2211
    115  CG2       -7.1900    1.7610  -15.8700 C.3   116  THR116      0.0375
    116  N        -15.7430    4.8940  -22.5300 N.3   120  GLN120     -0.1245
    117  CA       -15.5880    4.0660  -23.7100 C.3   120  GLN120      0.1566
    118  C        -16.1490    2.6420  -23.5770 C.2   120  GLN120      0.2260
    119  O        -15.9650    1.9690  -22.5510 O.2   120  GLN120     -0.2867
    120  CB       -14.1210    4.0050  -24.1480 C.3   120  GLN120      0.0367
    121  CG       -13.6620    5.2850  -24.7910 C.3   120  GLN120      0.0905
    122  CD       -12.2910    5.1280  -25.3740 C.2   120  GLN120      0.2608
    123  OE1      -12.0880    4.3340  -26.2800 O.2   120  GLN120     -0.2717
    124  NE2      -11.3230    5.8390  -24.7970 N.am  120  GLN120     -0.0878
    125  N        -17.7450   -0.9290  -26.1500 N.3   122  PHE122     -0.1241
    126  CA       -17.8940   -1.5850  -27.4420 C.3   122  PHE122      0.1605
    127  C        -19.1330   -2.4610  -27.4840 C.2   122  PHE122      0.2264
    128  O        -19.6300   -2.8960  -26.4250 O.2   122  PHE122     -0.2867
    129  CB       -16.6580   -2.4070  -27.8740 C.3   122  PHE122      0.0534
    130  CG       -16.2370   -3.4830  -26.9000 C.ar  122  PHE122     -0.0203
    131  CD1      -16.3840   -4.8270  -27.2330 C.ar  122  PHE122     -0.0042
    132  CD2      -15.6310   -3.1520  -25.6670 C.ar  122  PHE122     -0.0042
    133  CE1      -15.9430   -5.8450  -26.3310 C.ar  122  PHE122     -0.0003
    134  CE2      -15.2070   -4.1150  -24.7880 C.ar  122  PHE122     -0.0003
    135  CZ       -15.3280   -5.4670  -25.1160 C.ar  122  PHE122     -0.0000
    136  N        -11.7300  -14.1800  -25.2400 N.3   130  TRP130     -0.1227
    137  CA       -10.4540  -13.7390  -24.6910 C.3   130  TRP130      0.1737
    138  C        -10.6340  -12.4500  -23.9150 C.2   130  TRP130      0.2595
    139  O         -9.7320  -12.0290  -23.2210 O.2   130  TRP130     -0.2718
    140  CB        -9.3730  -13.5880  -25.7870 C.3   130  TRP130      0.0564
    141  CG        -9.7610  -12.5950  -26.8720 C.ar  130  TRP130      0.0003
    142  CD1       -9.3780  -11.2770  -26.9630 C.ar  130  TRP130      0.0946
    143  CD2      -10.6270  -12.8410  -27.9830 C.ar  130  TRP130      0.0152
    144  NE1       -9.9700  -10.6900  -28.0720 N.ar  130  TRP130     -0.2442
    145  CE2      -10.7390  -11.6240  -28.7120 C.ar  130  TRP130      0.0810
    146  CE3      -11.3270  -13.9680  -28.4350 C.ar  130  TRP130      0.0012
    147  CZ2      -11.5280  -11.5100  -29.8650 C.ar  130  TRP130      0.0191
    148  CZ3      -12.1030  -13.8610  -29.5910 C.ar  130  TRP130      0.0001
    149  CH2      -12.1890  -12.6310  -30.3010 C.ar  130  TRP130      0.0015
    150  N        -11.8110  -11.8330  -24.0280 N.am  131  LEU131     -0.1980
    151  CA       -12.0940  -10.5810  -23.2780 C.3   131  LEU131      0.1596
    152  C        -12.7960  -10.8500  -21.9330 C.2   131  LEU131      0.2287
    153  O        -12.9490   -9.9430  -21.1090 O.2   131  LEU131     -0.2864
    154  CB       -12.8920   -9.5730  -24.1620 C.3   131  LEU131      0.0297
    155  CG       -12.2580   -9.1620  -25.5200 C.3   131  LEU131      0.0022
    156  CD1      -13.2110   -8.2270  -26.2550 C.3   131  LEU131      0.0001
    157  CD2      -10.9250   -8.4740  -25.3110 C.3   131  LEU131      0.0001
    158  N        -12.9110   -7.3580  -19.5920 N.3   135  HIS135     -0.1241
    159  CA       -13.8290   -6.2670  -19.9460 C.3   135  HIS135      0.1621
    160  C        -15.2050   -6.5620  -19.3750 C.2   135  HIS135      0.2264
    161  O        -15.7380   -7.6630  -19.5800 O.2   135  HIS135     -0.2867
    162  CB       -13.8640   -6.0320  -21.4660 C.3   135  HIS135      0.0745
    163  CG       -12.5240   -5.6470  -22.0010 C.ar  135  HIS135      0.0817
    164  ND1      -12.1350   -4.3340  -22.1780 N.ar  135  HIS135     -0.2268
    165  CD2      -11.4390   -6.4020  -22.2640 C.ar  135  HIS135      0.1154
    166  CE1      -10.8770   -4.3040  -22.5900 C.ar  135  HIS135      0.1986
    167  NE2      -10.4280   -5.5490  -22.6440 N.ar  135  HIS135     -0.2212
    168  N         -9.2980   -3.7070  -40.7950 N.3   157  GLN157     -0.1231
    169  CA        -8.5340   -4.6690  -39.9860 C.3   157  GLN157      0.1698
    170  C         -7.8030   -3.9570  -38.8620 C.2   157  GLN157      0.2592
    171  O         -7.7010   -4.4810  -37.7700 O.2   157  GLN157     -0.2718
    172  CB        -7.5200   -5.4310  -40.8310 C.3   157  GLN157      0.0381
    173  CG        -8.1010   -6.2590  -41.9710 C.3   157  GLN157      0.0905
    174  CD        -7.0000   -6.8290  -42.8910 C.2   157  GLN157      0.2608
    175  OE1       -5.8600   -6.3130  -42.9340 O.2   157  GLN157     -0.2717
    176  NE2       -7.3350   -7.9040  -43.6280 N.am  157  GLN157     -0.0878
    177  N         -7.3110   -2.7460  -39.1130 N.am  158  ASN158     -0.1974
    178  CA        -6.6290   -2.0050  -38.0590 C.3   158  ASN158      0.1688
    179  C         -7.5130   -1.0500  -37.2700 C.2   158  ASN158      0.2292
    180  O         -7.0010   -0.2450  -36.4790 O.2   158  ASN158     -0.2864
    181  CB        -5.3980   -1.2690  -38.5800 C.3   158  ASN158      0.1181
    182  CG        -5.7430   -0.1810  -39.5930 C.2   158  ASN158      0.2629
    183  OD1       -6.8780    0.2850  -39.6750 O.2   158  ASN158     -0.2716
    184  ND2       -4.7590    0.2140  -40.3710 N.am  158  ASN158     -0.0877
@<TRIPOS>BOND
     1   176   174   am
     2   175   174    2
     3   174   173    1
     4   173   172    1
     5    34    33    2
     6    35    33   am
     7   172   169    1
     8   168   169    1
     9    33    32    1
    10    25    24    1
    11    25    26    1
    12    24    21    1
    13   184   182   am
    14   169   170    1
    15   183   182    2
    16    32    31    1
    17   182   181    1
    18    26    20    1
    19   177   170   am
    20   177   178    1
    21    21    20    1
    22    21    22    1
    23   170   171    2
    24   181   178    1
    25    20    14   am
    26    31    28    1
    27    22    27   am
    28    22    23    2
    29    27    28    1
    30   178   179    1
    31    28    29    1
    32   179   180    2
    33    14    13    1
    34    14    15    2
    35    13    12    1
    36    13    16    1
    37    18    16    1
    38    29    30    2
    39    29    36   am
    40    16    17    1
    41    17    19    1
    42    36    37    1
    43     3     2    1
    44     3     4    2
    45    40    37    1
    46    40    41    1
    47    37    38    1
    48    50    49    2
    49     2     1    1
    50     2     5    1
    51    47    38   am
    52    47    48    1
    53    38    39    2
    54    49    48    1
    55     6     5    1
    56     6     7    1
    57    41    43   ar
    58    41    42   ar
    59    43    45   ar
    60    48    51    1
    61    54    53    1
    62     8     7    1
    63     8     9    2
    64    42    44   ar
    65    55    56    1
    66    11     9    1
    67    58    57    2
    68     9    10    1
    69    45    46   ar
    70    51    52    1
    71    68    65    1
    72    68    69    1
    73    52    53    1
    74    65    64    1
    75    65    66    1
    76    57    56    1
    77   149   147   ar
    78   149   148   ar
    79    56    59    1
    80    67    66    2
    81    44    46   ar
    82    59    60    1
    83    71    69   ar
    84   147   145   ar
    85    66    72   am
    86    69    70   ar
    87   148   146   ar
    88    62    61    2
    89    60    61    1
    90   145   144   ar
    91   145   143   ar
    92    72    73    1
    93    61    63   am
    94   146   143   ar
    95   144   142   ar
    96   143   141   ar
    97   129   126    1
    98   129   130    1
    99    73    74    1
   100   127   126    1
   101   127   128    2
   102   126   125    1
   103   131   130   ar
   104   131   133   ar
   105    82    80    1
   106   142   141   ar
   107   130   132   ar
   108   141   140    1
   109    74    76   am
   110    74    75    2
   111    76    77    1
   112    81    80    1
   113   133   135   ar
   114   123   122    2
   115   156   155    1
   116    80    77    1
   117   140   137    1
   118   132   134   ar
   119   155   157    1
   120   155   154    1
   121    77    78    1
   122   122   124   am
   123   122   121    1
   124   136   137    1
   125   135   134   ar
   126   121   120    1
   127   137   138    1
   128    83    78   am
   129    83    84    1
   130    78    79    2
   131    91    88    1
   132   154   151    1
   133   120   117    1
   134   150   138   am
   135   150   151    1
   136   138   139    2
   137   117   118    1
   138   117   116    1
   139   118   119    2
   140    84    85    1
   141   151   152    1
   142    88    87    1
   143    88    89    1
   144    85    86    2
   145   167   166   ar
   146   167   165   ar
   147   166   164   ar
   148    95    94    2
   149   165   163   ar
   150   164   163   ar
   151   163   162    1
   152    89    92   am
   153    89    90    2
   154    92    93    1
   155   152   153    2
   156   162   159    1
   157    94    93    1
   158    94   100   am
   159    93    96    1
   160   104   101    1
   161   101   100    1
   162   101   102    1
   163    98    97    2
   164   159   158    1
   165   159   160    1
   166    97    96    1
   167    97    99   am
   168   161   160    2
   169   102   105   am
   170   102   103    2
   171   105   106    1
   172   106   107    1
   173   112   111    2
   174   114   113    1
   175   108   107    2
   176   113   115    1
   177   113   110    1
   178   111   110    1
   179   110   109    1
