@<TRIPOS>MOLECULE
tmp/2pp1C00.pdb
 177 164 0 0 0
SMALL
GASTEIGER

@<TRIPOS>ATOM
      1  N        -21.0280   87.5220   24.2540 N.3    37  VAL37      -0.1245
      2  CA       -22.4430   87.8220   24.4180 C.3    37  VAL37       0.1561
      3  C        -23.3750   86.6610   24.0750 C.2    37  VAL37       0.2260
      4  O        -23.2420   86.0380   23.0200 O.2    37  VAL37      -0.2867
      5  CB       -22.8170   89.0410   23.5530 C.3    37  VAL37       0.0252
      6  CG1      -24.2980   89.3280   23.6540 C.3    37  VAL37       0.0019
      7  CG2      -21.9990   90.2460   23.9980 C.3    37  VAL37       0.0019
      8  N        -27.5650   85.5840   23.9420 N.3    39  ASP39      -0.1239
      9  CA       -28.9960   85.8210   24.1070 C.3    39  ASP39       0.1674
     10  C        -29.6060   84.4170   24.0960 C.2    39  ASP39       0.2266
     11  O        -28.8680   83.4250   24.1310 O.2    39  ASP39      -0.2867
     12  CB       -29.5970   86.7040   22.9940 C.3    39  ASP39       0.1410
     13  CG       -29.3400   86.1750   21.5870 C.2    39  ASP39       0.3668
     14  OD1      -29.2430   84.9460   21.3800 O.co2  39  ASP39      -0.2456
     15  OD2      -29.2620   87.0130   20.6680 O.co2  39  ASP39      -0.2456
     16  N        -30.6570   82.5360   21.8390 N.3    41  LYS41      -0.1245
     17  CA       -30.2120   81.6810   20.7390 C.3    41  LYS41       0.1561
     18  C        -29.0350   80.8040   21.1610 C.2    41  LYS41       0.2260
     19  O        -28.8300   79.7150   20.6230 O.2    41  LYS41      -0.2867
     20  CB       -29.8200   82.5290   19.5200 C.3    41  LYS41       0.0271
     21  CG       -30.9910   83.2680   18.8860 C.3    41  LYS41       0.0035
     22  CD       -30.5790   84.0620   17.6450 C.3    41  LYS41       0.0206
     23  CE       -29.8980   85.3790   17.9920 C.3    41  LYS41       0.1093
     24  NZ       -28.6020   85.2200   18.7080 N.3    41  LYS41      -0.1314
     25  N        -21.4590   85.2880   20.9910 N.3    50  LEU50      -0.1245
     26  CA       -20.9580   86.2780   20.0330 C.3    50  LEU50       0.1561
     27  C        -19.6850   86.8940   20.6240 C.2    50  LEU50       0.2260
     28  O        -19.6950   87.3780   21.7590 O.2    50  LEU50      -0.2867
     29  CB       -22.0120   87.3700   19.8080 C.3    50  LEU50       0.0270
     30  CG       -21.6930   88.4370   18.7590 C.3    50  LEU50       0.0019
     31  CD1      -21.6860   87.8010   17.3690 C.3    50  LEU50       0.0001
     32  CD2      -22.7290   89.5520   18.8290 C.3    50  LEU50       0.0001
     33  N        -23.3450   89.8330   12.5800 N.3    75  LYS75      -0.1231
     34  CA       -23.1030   89.2540   13.8930 C.3    75  LYS75       0.1693
     35  C        -23.0460   87.7580   13.5790 C.2    75  LYS75       0.2591
     36  O        -24.0660   87.1320   13.2830 O.2    75  LYS75      -0.2718
     37  CB       -24.2430   89.5910   14.8620 C.3    75  LYS75       0.0285
     38  CG       -24.2940   91.0710   15.2340 C.3    75  LYS75       0.0035
     39  CD       -25.3230   91.3660   16.3290 C.3    75  LYS75       0.0206
     40  CE       -25.3870   92.8690   16.6280 C.3    75  LYS75       0.1093
     41  NZ       -26.3940   93.2050   17.6790 N.3    75  LYS75      -0.1314
     42  N        -21.8290   87.2260   13.6210 N.am   76  ARG76      -0.1980
     43  CA       -21.5150   85.8350   13.2960 C.3    76  ARG76       0.1597
     44  C        -21.2510   85.7920   11.7870 C.2    76  ARG76       0.2287
     45  O        -21.0880   86.8410   11.1700 O.2    76  ARG76      -0.2864
     46  CB       -22.6370   84.8750   13.7250 C.3    76  ARG76       0.0334
     47  CG       -22.8030   84.8310   15.2460 C.3    76  ARG76       0.0492
     48  CD       -23.7380   83.7240   15.7190 C.3    76  ARG76       0.2205
     49  NE       -23.8550   83.7010   17.1790 N.pl3  76  ARG76      -0.0865
     50  CZ       -24.5560   84.5820   17.8950 C.cat  76  ARG76       0.5346
     51  NH1      -25.2200   85.5660   17.2900 N.pl3  76  ARG76       0.1354
     52  NH2      -24.5830   84.4910   19.2250 N.pl3  76  ARG76       0.1354
     53  N        -30.1340   97.7760   25.4370 N.3   160  THR160     -0.1218
     54  CA       -30.2440   96.3300   25.2420 C.3   160  THR160      0.1862
     55  C        -29.0050   95.5820   25.7310 C.2   160  THR160      0.2287
     56  O        -29.1130   94.4750   26.2600 O.2   160  THR160     -0.2866
     57  CB       -30.4370   95.9810   23.7370 C.3   160  THR160      0.1770
     58  OG1      -31.6810   96.5140   23.2750 O.3   160  THR160     -0.2211
     59  CG2      -30.4240   94.4640   23.5220 C.3   160  THR160      0.0375
     60  N        -28.5050   91.0220   28.6420 N.3   164  PHE164     -0.1241
     61  CA       -28.2780   89.7230   28.0140 C.3   164  PHE164      0.1605
     62  C        -28.2750   88.5510   28.9950 C.2   164  PHE164      0.2264
     63  O        -28.0420   88.7250   30.1960 O.2   164  PHE164     -0.2867
     64  CB       -26.9820   89.7620   27.2110 C.3   164  PHE164      0.0534
     65  CG       -27.1550   90.3330   25.8360 C.ar  164  PHE164     -0.0203
     66  CD1      -27.3850   89.4950   24.7480 C.ar  164  PHE164     -0.0042
     67  CD2      -27.1150   91.7140   25.6260 C.ar  164  PHE164     -0.0042
     68  CE1      -27.5720   90.0180   23.4650 C.ar  164  PHE164     -0.0003
     69  CE2      -27.3020   92.2520   24.3430 C.ar  164  PHE164     -0.0003
     70  CZ       -27.5290   91.4000   23.2620 C.ar  164  PHE164     -0.0000
     71  N        -34.4600   96.8650   28.0170 N.3   188  LYS188     -0.1245
     72  CA       -34.9270   95.6700   27.3300 C.3   188  LYS188      0.1561
     73  C        -34.1890   94.4900   27.9570 C.2   188  LYS188      0.2260
     74  O        -32.9640   94.5070   28.0810 O.2   188  LYS188     -0.2867
     75  CB       -34.6300   95.7110   25.8160 C.3   188  LYS188      0.0271
     76  CG       -35.2270   94.5050   25.0670 C.3   188  LYS188      0.0035
     77  CD       -34.4970   94.1840   23.7620 C.3   188  LYS188      0.0206
     78  CE       -35.0100   94.9920   22.5860 C.3   188  LYS188      0.1093
     79  NZ       -34.2600   94.6800   21.3420 N.3   188  LYS188     -0.1314
     80  N        -33.3680   90.3680   27.8640 N.3   190  LYS190     -0.1245
     81  CA       -33.3770   89.1870   27.0110 C.3   190  LYS190      0.1561
     82  C        -34.0630   88.0430   27.7500 C.2   190  LYS190      0.2260
     83  O        -33.7870   87.8030   28.9220 O.2   190  LYS190     -0.2867
     84  CB       -31.9480   88.7670   26.6530 C.3   190  LYS190      0.0271
     85  CG       -31.2110   89.7330   25.7390 C.3   190  LYS190      0.0035
     86  CD       -31.9040   89.8550   24.3830 C.3   190  LYS190      0.0206
     87  CE       -31.0570   90.6440   23.3980 C.3   190  LYS190      0.1093
     88  NZ       -31.6130   90.5940   22.0200 N.3   190  LYS190     -0.1314
     89  N        -37.1350   90.5310   24.9940 N.3   219  ASP219     -0.1239
     90  CA       -36.7400   90.0250   23.6880 C.3   219  ASP219      0.1674
     91  C        -36.4050   88.5330   23.7770 C.2   219  ASP219      0.2266
     92  O        -35.4500   88.1590   24.4560 O.2   219  ASP219     -0.2867
     93  CB       -35.5120   90.8060   23.2330 C.3   219  ASP219      0.1410
     94  CG       -35.1230   90.5160   21.8060 C.2   219  ASP219      0.3668
     95  OD1      -35.5920   89.5080   21.2320 O.co2 219  ASP219     -0.2456
     96  OD2      -34.3260   91.3070   21.2630 O.co2 219  ASP219     -0.2456
     97  N        -35.7240   86.6150   21.0350 N.3   221  ASN221     -0.1240
     98  CA       -34.8700   86.2340   19.9150 C.3   221  ASN221      0.1653
     99  C        -35.3090   84.9300   19.2280 C.2   221  ASN221      0.2266
    100  O        -34.4840   84.0570   18.9420 O.2   221  ASN221     -0.2867
    101  CB       -33.4040   86.1340   20.3780 C.3   221  ASN221      0.1155
    102  CG       -32.7360   87.5130   20.5260 C.2   221  ASN221      0.2627
    103  OD1      -32.4150   88.1750   19.5290 O.2   221  ASN221     -0.2716
    104  ND2      -32.5390   87.9500   21.7670 N.am  221  ASN221     -0.0877
    105  N        -40.5930   91.2110   22.1070 N.3   245  GLU245     -0.1245
    106  CA       -39.9280   91.1110   20.8210 C.3   245  GLU245      0.1567
    107  C        -39.5510   89.7010   20.3940 C.2   245  GLU245      0.2260
    108  O        -39.1440   88.8830   21.2120 O.2   245  GLU245     -0.2867
    109  CB       -38.6800   91.9850   20.8550 C.3   245  GLU245      0.0388
    110  CG       -37.9200   92.0580   19.5500 C.3   245  GLU245      0.1160
    111  CD       -36.8510   93.1260   19.5820 C.2   245  GLU245      0.3649
    112  OE1      -36.9320   94.0190   20.4620 O.co2 245  GLU245     -0.2457
    113  OE2      -35.9440   93.0910   18.7260 O.co2 245  GLU245     -0.2457
    114  N        -36.2600   92.4600   12.9510 N.3   271  GLU271     -0.1245
    115  CA       -34.8270   92.7070   12.8660 C.3   271  GLU271      0.1567
    116  C        -34.0570   91.7450   11.9550 C.2   271  GLU271      0.2260
    117  O        -33.0790   92.1430   11.3220 O.2   271  GLU271     -0.2867
    118  CB       -34.2060   92.6430   14.2480 C.3   271  GLU271      0.0388
    119  CG       -33.9500   91.2280   14.6820 C.3   271  GLU271      0.1160
    120  CD       -33.0830   91.1820   15.8890 C.2   271  GLU271      0.3649
    121  OE1      -33.5060   91.7460   16.9120 O.co2 271  GLU271     -0.2457
    122  OE2      -31.9820   90.6010   15.8160 O.co2 271  GLU271     -0.2457
    123  N        -29.2680   95.4990    7.3540 N.3   297  ARG297     -0.1245
    124  CA       -29.8160   94.1910    7.0000 C.3   297  ARG297      0.1563
    125  C        -30.7540   94.1590    5.7990 C.2   297  ARG297      0.2260
    126  O        -30.7460   93.1790    5.0510 O.2   297  ARG297     -0.2867
    127  CB       -30.5590   93.5790    8.1920 C.3   297  ARG297      0.0307
    128  CG       -29.6700   93.1100    9.3360 C.3   297  ARG297      0.0489
    129  CD       -29.9110   91.6300    9.6150 C.3   297  ARG297      0.2205
    130  NE       -29.0230   91.0820   10.6370 N.pl3 297  ARG297     -0.0865
    131  CZ       -29.3000   91.0470   11.9380 C.cat 297  ARG297      0.5346
    132  NH1      -30.4460   91.5320   12.3940 N.pl3 297  ARG297      0.1354
    133  NH2      -28.4360   90.5090   12.7860 N.pl3 297  ARG297      0.1354
    134  N        -33.7410   98.2480   14.6950 N.3   321  HIS321     -0.1241
    135  CA       -32.8290   97.3870   15.4430 C.3   321  HIS321      0.1621
    136  C        -31.3520   97.7280   15.2830 C.2   321  HIS321      0.2264
    137  O        -30.8630   97.9150   14.1620 O.2   321  HIS321     -0.2867
    138  CB       -33.0720   95.9280   15.0330 C.3   321  HIS321      0.0745
    139  CG       -31.9490   95.0010   15.3760 C.ar  321  HIS321      0.0817
    140  ND1      -30.9070   94.7460   14.5120 N.ar  321  HIS321     -0.2268
    141  CD2      -31.7070   94.2640   16.4850 C.ar  321  HIS321      0.1154
    142  CE1      -30.0720   93.8870   15.0720 C.ar  321  HIS321      0.1986
    143  NE2      -30.5350   93.5800   16.2700 N.ar  321  HIS321     -0.2212
    144  N        -32.7610  101.8570   19.6840 N.3   341  GLU341     -0.1245
    145  CA       -32.0720  100.8410   20.4680 C.3   341  GLU341      0.1567
    146  C        -30.6100  101.1980   20.7060 C.2   341  GLU341      0.2260
    147  O        -29.8750  101.5280   19.7740 O.2   341  GLU341     -0.2867
    148  CB       -32.1800   99.4820   19.7620 C.3   341  GLU341      0.0388
    149  CG       -31.4250   98.3530   20.4460 C.3   341  GLU341      0.1160
    150  CD       -31.8080   96.9810   19.9110 C.2   341  GLU341      0.3649
    151  OE1      -32.0710   96.8610   18.6890 O.co2 341  GLU341     -0.2457
    152  OE2      -31.8300   96.0240   20.7150 O.co2 341  GLU341     -0.2457
    153  N        -26.6840  100.3810   22.0760 N.3   343  PHE343     -0.1241
    154  CA       -25.5860   99.4450   22.2930 C.3   343  PHE343      0.1605
    155  C        -24.3950  100.4030   22.2980 C.2   343  PHE343      0.2264
    156  O        -24.4270  101.4090   21.5960 O.2   343  PHE343     -0.2867
    157  CB       -25.4040   98.4730   21.1160 C.3   343  PHE343      0.0534
    158  CG       -26.3070   97.2620   21.1500 C.ar  343  PHE343     -0.0203
    159  CD1      -27.6350   97.3470   20.7380 C.ar  343  PHE343     -0.0042
    160  CD2      -25.8070   96.0160   21.5450 C.ar  343  PHE343     -0.0042
    161  CE1      -28.4520   96.2120   20.7110 C.ar  343  PHE343     -0.0003
    162  CE2      -26.6180   94.8750   21.5230 C.ar  343  PHE343     -0.0003
    163  CZ       -27.9420   94.9720   21.1040 C.ar  343  PHE343     -0.0000
    164  N        -21.3420   99.1720   21.7010 N.3   345  TRP345     -0.1241
    165  CA       -20.4110   98.4510   20.8440 C.3   345  TRP345      0.1605
    166  C        -19.7280   99.2230   19.7250 C.2   345  TRP345      0.2264
    167  O        -18.5220   99.0880   19.5340 O.2   345  TRP345     -0.2867
    168  CB       -21.1010   97.2240   20.2320 C.3   345  TRP345      0.0550
    169  CG       -21.6380   96.2460   21.2330 C.ar  345  TRP345      0.0003
    170  CD1      -21.5550   96.3300   22.5950 C.ar  345  TRP345      0.0946
    171  CD2      -22.3500   95.0360   20.9490 C.ar  345  TRP345      0.0152
    172  NE1      -22.1730   95.2470   23.1750 N.ar  345  TRP345     -0.2442
    173  CE2      -22.6690   94.4370   22.1880 C.ar  345  TRP345      0.0810
    174  CE3      -22.7490   94.3990   19.7670 C.ar  345  TRP345      0.0012
    175  CZ2      -23.3720   93.2310   22.2800 C.ar  345  TRP345      0.0191
    176  CZ3      -23.4470   93.1980   19.8570 C.ar  345  TRP345      0.0001
    177  CH2      -23.7510   92.6280   21.1070 C.ar  345  TRP345      0.0015
@<TRIPOS>BOND
     1   126   125    2
     2   125   124    1
     3   124   123    1
     4   124   127    1
     5   127   128    1
     6   128   129    1
     7   129   130    1
     8   130   131    2
     9    45    44    2
    10   117   116    2
    11    44    43    1
    12   131   132    1
    13   131   133    1
    14   116   115    1
    15    33    34    1
    16   115   114    1
    17   115   118    1
    18    36    35    2
    19    43    42    1
    20    43    46    1
    21    35    42   am
    22    35    34    1
    23    46    47    1
    24    34    37    1
    25   137   136    2
    26   118   119    1
    27   140   142   ar
    28   140   139   ar
    29   119   120    1
    30   134   135    1
    31    37    38    1
    32   138   139    1
    33   138   135    1
    34   142   143   ar
    35    38    39    1
    36    47    48    1
    37   136   135    1
    38   139   141   ar
    39    48    49    1
    40   122   120   ar
    41   120   121   ar
    42   143   141   ar
    43    39    40    1
    44    40    41    1
    45    49    50    2
    46    51    50    1
    47    31    30    1
    48    22    23    1
    49    22    21    1
    50    50    52    1
    51    23    24    1
    52   151   150   ar
    53   113   111   ar
    54    30    32    1
    55    30    29    1
    56    21    20    1
    57   100    99    2
    58    99    98    1
    59    20    17    1
    60   103   102    2
    61   167   166    2
    62   110   111    1
    63   110   109    1
    64   111   112   ar
    65   144   145    1
    66   166   165    1
    67   148   149    1
    68   148   145    1
    69   174   176   ar
    70   174   171   ar
    71   147   146    2
    72    29    26    1
    73   176   177   ar
    74   150   149    1
    75   150   152   ar
    76    98   101    1
    77    98    97    1
    78    26    27    1
    79    26    25    1
    80   168   165    1
    81   168   169    1
    82   101   102    1
    83   107   106    1
    84   107   108    2
    85   145   146    1
    86   102   104   am
    87    19    18    2
    88    27    28    2
    89    15    13   ar
    90   161   159   ar
    91   161   163   ar
    92   159   158   ar
    93    17    18    1
    94    17    16    1
    95   106   109    1
    96   106   105    1
    97   165   164    1
    98   171   169   ar
    99   171   173   ar
   100   163   162   ar
   101   177   175   ar
   102   157   158    1
   103   157   154    1
   104   158   160   ar
   105    95    94   ar
   106   169   170   ar
   107    96    94   ar
   108    79    78    1
   109    14    13   ar
   110   162   160   ar
   111    13    12    1
   112   156   155    2
   113    94    93    1
   114    88    87    1
   115   153   154    1
   116   173   175   ar
   117   173   172   ar
   118   154   155    1
   119    78    77    1
   120   170   172   ar
   121    12     9    1
   122     4     3    2
   123    93    90    1
   124    70    68   ar
   125    70    69   ar
   126    58    57    1
   127    87    86    1
   128    68    66   ar
   129    59    57    1
   130     5     6    1
   131     5     7    1
   132     5     2    1
   133    90    91    1
   134    90    89    1
   135    57    54    1
   136    77    76    1
   137    91    92    2
   138     8     9    1
   139     3     2    1
   140    10     9    1
   141    10    11    2
   142     1     2    1
   143    69    67   ar
   144    86    85    1
   145    66    65   ar
   146    76    75    1
   147    54    53    1
   148    54    55    1
   149    67    65   ar
   150    55    56    2
   151    85    84    1
   152    75    72    1
   153    65    64    1
   154    84    81    1
   155    81    82    1
   156    81    80    1
   157    64    61    1
   158    72    73    1
   159    72    71    1
   160    82    83    2
   161    73    74    2
   162    61    60    1
   163    61    62    1
   164    62    63    2
