@<TRIPOS>MOLECULE
tmp/2pp3B00.pdb
 168 156 0 0 0
SMALL
GASTEIGER

@<TRIPOS>ATOM
      1  N         24.1950   86.3700   40.4900 N.3    41  VAL41      -0.1245
      2  CA        24.3620   86.1210   39.0660 C.3    41  VAL41       0.1561
      3  C         23.9500   87.3150   38.2120 C.2    41  VAL41       0.2260
      4  O         22.9330   87.9560   38.4720 O.2    41  VAL41      -0.2867
      5  CB        23.5320   84.8910   38.6370 C.3    41  VAL41       0.0252
      6  CG1       23.6780   84.6470   37.1460 C.3    41  VAL41       0.0019
      7  CG2       23.9790   83.6770   39.4290 C.3    41  VAL41       0.0019
      8  N         23.8620   88.6100   33.9590 N.3    43  ASP43      -0.1239
      9  CA        24.1250   88.4610   32.5320 C.3    43  ASP43       0.1674
     10  C         24.1160   89.8730   31.9440 C.2    43  ASP43       0.2266
     11  O         24.1820   90.8510   32.6890 O.2    43  ASP43      -0.2867
     12  CB        23.0610   87.5850   31.8520 C.3    43  ASP43       0.1410
     13  CG        21.6390   88.0090   32.1870 C.2    43  ASP43       0.3668
     14  OD1       21.3460   89.2220   32.2000 O.co2  43  ASP43      -0.2456
     15  OD2       20.8030   87.1160   32.4250 O.co2  43  ASP43      -0.2456
     16  N         21.7920   91.6430   30.9130 N.3    45  LYS45      -0.1245
     17  CA        20.6700   92.4470   31.3890 C.3    45  LYS45       0.1561
     18  C         21.0800   93.3250   32.5750 C.2    45  LYS45       0.2260
     19  O         20.4810   94.3770   32.8210 O.2    45  LYS45      -0.2867
     20  CB        19.4950   91.5430   31.7860 C.3    45  LYS45       0.0271
     21  CG        18.8150   90.8600   30.6050 C.3    45  LYS45       0.0035
     22  CD        17.6080   90.0280   31.0340 C.3    45  LYS45       0.0206
     23  CE        18.0070   88.6880   31.6610 C.3    45  LYS45       0.1093
     24  NZ        18.7650   88.8140   32.9430 N.3    45  LYS45      -0.1314
     25  N         21.0240   88.6600   40.0510 N.3    54  LEU54      -0.1245
     26  CA        20.1210   87.6430   40.5860 C.3    54  LEU54       0.1561
     27  C         20.7220   87.0820   41.8760 C.2    54  LEU54       0.2260
     28  O         21.8830   86.6660   41.8990 O.2    54  LEU54      -0.2867
     29  CB        19.9460   86.5180   39.5600 C.3    54  LEU54       0.0270
     30  CG        18.9130   85.4350   39.8590 C.3    54  LEU54       0.0019
     31  CD1       17.5190   86.0410   39.9030 C.3    54  LEU54       0.0001
     32  CD2       18.9870   84.3680   38.7840 C.3    54  LEU54       0.0001
     33  N         12.5520   84.1490   38.2570 N.3    79  LYS79      -0.1231
     34  CA        13.8520   84.7600   38.4830 C.3    79  LYS79       0.1693
     35  C         13.5330   86.2480   38.5690 C.2    79  LYS79       0.2591
     36  O         13.2570   86.8900   37.5570 O.2    79  LYS79      -0.2718
     37  CB        14.7990   84.4720   37.3170 C.3    79  LYS79       0.0285
     38  CG        15.2710   83.0300   37.2550 C.3    79  LYS79       0.0035
     39  CD        16.2630   82.8290   36.1250 C.3    79  LYS79       0.0206
     40  CE        16.6890   81.3700   36.0110 C.3    79  LYS79       0.1093
     41  NZ        17.6280   81.1610   34.8680 N.3    79  LYS79      -0.1314
     42  N         13.5450   86.7630   39.7930 N.am   80  ARG80      -0.1980
     43  CA        13.2250   88.1520   40.1100 C.3    80  ARG80       0.1597
     44  C         11.7290   88.2100   40.4000 C.2    80  ARG80       0.2287
     45  O         11.0950   87.1650   40.5470 O.2    80  ARG80      -0.2864
     46  CB        13.6330   89.1060   38.9730 C.3    80  ARG80       0.0334
     47  CG        15.1490   89.1500   38.7770 C.3    80  ARG80       0.0492
     48  CD        15.6070   90.2250   37.8000 C.3    80  ARG80       0.2205
     49  NE        17.0670   90.2700   37.6940 N.pl3  80  ARG80      -0.0865
     50  CZ        17.8110   89.3790   37.0390 C.cat  80  ARG80       0.5346
     51  NH1       17.2440   88.3520   36.4110 N.pl3  80  ARG80       0.1354
     52  NH2       19.1340   89.5090   37.0160 N.pl3  80  ARG80       0.1354
     53  N         25.5070   76.2780   31.6030 N.3   164  THR164     -0.1218
     54  CA        25.3620   77.7280   31.4900 C.3   164  THR164      0.1862
     55  C         25.8740   78.4650   32.7250 C.2   164  THR164      0.2287
     56  O         26.4960   79.5210   32.6100 O.2   164  THR164     -0.2866
     57  CB        23.8750   78.1210   31.2910 C.3   164  THR164      0.1770
     58  OG1       23.4130   77.6170   30.0330 O.3   164  THR164     -0.2211
     59  CG2       23.7010   79.6360   31.3180 C.3   164  THR164      0.0375
     60  N         28.7650   83.0040   33.0770 N.3   168  PHE168     -0.1241
     61  CA        28.0850   84.2880   33.2180 C.3   168  PHE168      0.1605
     62  C         29.0560   85.4680   33.2360 C.2   168  PHE168      0.2264
     63  O         30.2560   85.2950   33.4600 O.2   168  PHE168     -0.2867
     64  CB        27.2090   84.2810   34.4690 C.3   168  PHE168      0.0534
     65  CG        25.8930   83.5850   34.2740 C.ar  168  PHE168     -0.0203
     66  CD1       24.8690   84.2010   33.5610 C.ar  168  PHE168     -0.0042
     67  CD2       25.6800   82.3070   34.7820 C.ar  168  PHE168     -0.0042
     68  CE1       23.6450   83.5530   33.3550 C.ar  168  PHE168     -0.0003
     69  CE2       24.4620   81.6480   34.5830 C.ar  168  PHE168     -0.0003
     70  CZ        23.4430   82.2740   33.8680 C.ar  168  PHE168     -0.0000
     71  N         27.9280   77.2970   27.1510 N.3   192  LYS192     -0.1245
     72  CA        27.2660   78.5080   26.6840 C.3   192  LYS192      0.1561
     73  C         27.8860   79.7010   27.3960 C.2   192  LYS192      0.2260
     74  O         27.9590   79.7390   28.6280 O.2   192  LYS192     -0.2867
     75  CB        25.7560   78.4810   26.9510 C.3   192  LYS192      0.0271
     76  CG        25.0540   79.7400   26.4310 C.3   192  LYS192      0.0035
     77  CD        23.5520   79.5560   26.2460 C.3   192  LYS192      0.0206
     78  CE        22.8120   79.5130   27.5630 C.3   192  LYS192      0.1093
     79  NZ        21.3600   79.2660   27.3310 N.3   192  LYS192     -0.1314
     80  N         24.9350   83.5850   24.3970 N.3   223  ASP223     -0.1239
     81  CA        23.6330   84.1100   24.7650 C.3   223  ASP223      0.1674
     82  C         23.7560   85.6040   25.0850 C.2   223  ASP223      0.2266
     83  O         24.4040   85.9780   26.0620 O.2   223  ASP223     -0.2867
     84  CB        23.1570   83.3430   25.9870 C.3   223  ASP223      0.1410
     85  CG        21.7780   83.7350   26.4310 C.2   223  ASP223      0.3668
     86  OD1       21.2100   84.7350   25.9420 O.co2 223  ASP223     -0.2456
     87  OD2       21.2700   83.0220   27.3040 O.co2 223  ASP223     -0.2456
     88  N         21.1300   87.5860   25.7010 N.3   225  ASN225     -0.1240
     89  CA        20.0090   88.0000   26.5330 C.3   225  ASN225      0.1653
     90  C         19.3170   89.2990   26.1000 C.2   225  ASN225      0.2266
     91  O         19.0980   90.2000   26.9150 O.2   225  ASN225     -0.2867
     92  CB        20.4590   88.1070   27.9960 C.3   225  ASN225      0.1155
     93  CG        20.6010   86.7400   28.6650 C.2   225  ASN225      0.2627
     94  OD1       19.6090   86.1250   29.0810 O.2   225  ASN225     -0.2716
     95  ND2       21.8320   86.2540   28.7550 N.am  225  ASN225     -0.0877
     96  N         22.0070   82.8470   20.9710 N.3   249  GLU249     -0.1245
     97  CA        20.7560   82.9430   21.6940 C.3   249  GLU249      0.1567
     98  C         20.3060   84.3670   21.9970 C.2   249  GLU249      0.2260
     99  O         21.1140   85.2300   22.3310 O.2   249  GLU249     -0.2867
    100  CB        20.8870   82.1540   22.9890 C.3   249  GLU249      0.0388
    101  CG        19.6080   82.0050   23.7610 C.3   249  GLU249      0.1160
    102  CD        19.7250   80.9470   24.8290 C.2   249  GLU249      0.3649
    103  OE1       20.5220   79.9990   24.6420 O.co2 249  GLU249     -0.2457
    104  OE2       19.0090   81.0460   25.8390 O.co2 249  GLU249     -0.2457
    105  N         12.8910   81.7090   25.4070 N.3   275  GLU275     -0.1245
    106  CA        12.8160   81.5000   26.8440 C.3   275  GLU275      0.1567
    107  C         11.9400   82.4910   27.6100 C.2   275  GLU275      0.2260
    108  O         11.3660   82.1390   28.6410 O.2   275  GLU275     -0.2867
    109  CB        14.2200   81.5080   27.4540 C.3   275  GLU275      0.0388
    110  CG        14.7050   82.8760   27.8810 C.3   275  GLU275      0.1160
    111  CD        16.1310   82.8330   28.3750 C.2   275  GLU275      0.3649
    112  OE1       16.9740   82.2740   27.6440 O.co2 275  GLU275     -0.2457
    113  OE2       16.4130   83.3520   29.4770 O.co2 275  GLU275     -0.2457
    114  N          7.2680   78.5130   32.3750 N.3   301  ARG301     -0.1245
    115  CA         6.8510   79.8110   31.8480 C.3   301  ARG301      0.1563
    116  C          5.6830   79.8380   30.8710 C.2   301  ARG301      0.2260
    117  O          4.9420   80.8220   30.8380 O.2   301  ARG301     -0.2867
    118  CB         8.0400   80.5180   31.2000 C.3   301  ARG301      0.0307
    119  CG         8.9170   81.2680   32.1890 C.3   301  ARG301      0.0489
    120  CD        10.1110   81.9080   31.5060 C.3   301  ARG301      0.2205
    121  NE        10.9540   82.6120   32.4650 N.pl3 301  ARG301     -0.0865
    122  CZ        12.2210   82.9450   32.2400 C.cat 301  ARG301      0.5346
    123  NH1       12.7900   82.6350   31.0830 N.pl3 301  ARG301      0.1354
    124  NH2       12.9250   83.5800   33.1740 N.pl3 301  ARG301      0.1354
    125  N         14.6220   75.7940   28.0070 N.3   325  HIS325     -0.1241
    126  CA        15.3570   76.6730   28.8980 C.3   325  HIS325      0.1621
    127  C         15.1800   76.3240   30.3700 C.2   325  HIS325      0.2264
    128  O         14.0570   76.1100   30.8300 O.2   325  HIS325     -0.2867
    129  CB        14.9240   78.1210   28.6460 C.3   325  HIS325      0.0745
    130  CG        15.3510   79.0780   29.7130 C.ar  325  HIS325      0.0817
    131  ND1       14.5770   79.3500   30.8200 N.ar  325  HIS325     -0.2268
    132  CD2       16.4760   79.8180   29.8490 C.ar  325  HIS325      0.1154
    133  CE1       15.2050   80.2190   31.5920 C.ar  325  HIS325      0.1986
    134  NE2       16.3610   80.5180   31.0260 N.ar  325  HIS325     -0.2212
    135  N         19.7420   72.1560   28.8710 N.3   345  GLU345     -0.1245
    136  CA        20.5440   73.1450   29.5800 C.3   345  GLU345      0.1567
    137  C         20.7650   72.7870   31.0420 C.2   345  GLU345      0.2260
    138  O         19.8190   72.4950   31.7750 O.2   345  GLU345     -0.2867
    139  CB        19.8780   74.5220   29.4720 C.3   345  GLU345      0.0388
    140  CG        20.5330   75.6050   30.3170 C.3   345  GLU345      0.1160
    141  CD        19.9290   76.9810   30.0840 C.2   345  GLU345      0.3649
    142  OE1       18.6810   77.1020   30.0740 O.co2 345  GLU345     -0.2457
    143  OE2       20.7110   77.9410   29.9170 O.co2 345  GLU345     -0.2457
    144  N         22.0780   73.5260   34.9910 N.3   347  PHE347     -0.1241
    145  CA        22.2880   74.4420   36.1060 C.3   347  PHE347      0.1605
    146  C         22.3500   73.5040   37.3070 C.2   347  PHE347      0.2264
    147  O         21.7810   72.4140   37.2650 O.2   347  PHE347     -0.2867
    148  CB        21.0970   75.3850   36.3040 C.3   347  PHE347      0.0534
    149  CG        21.1120   76.6000   35.4220 C.ar  347  PHE347     -0.0203
    150  CD1       20.5730   76.5580   34.1410 C.ar  347  PHE347     -0.0042
    151  CD2       21.6420   77.8020   35.8900 C.ar  347  PHE347     -0.0042
    152  CE1       20.5560   77.6990   33.3380 C.ar  347  PHE347     -0.0003
    153  CE2       21.6300   78.9460   35.0960 C.ar  347  PHE347     -0.0003
    154  CZ        21.0860   78.8940   33.8190 C.ar  347  PHE347     -0.0000
    155  N         21.7420   74.8960   40.3920 N.3   349  TRP349     -0.1241
    156  CA        20.8550   75.6230   41.2850 C.3   349  TRP349      0.1605
    157  C         19.7540   74.8200   41.9620 C.2   349  TRP349      0.2264
    158  O         19.5740   74.9240   43.1740 O.2   349  TRP349     -0.2867
    159  CB        20.2290   76.8010   40.5380 C.3   349  TRP349      0.0550
    160  CG        21.2360   77.7790   40.0050 C.ar  349  TRP349      0.0003
    161  CD1       22.5930   77.7360   40.1690 C.ar  349  TRP349      0.0946
    162  CD2       20.9650   78.9430   39.2150 C.ar  349  TRP349      0.0152
    163  NE1       23.1830   78.7990   39.5280 N.ar  349  TRP349     -0.2442
    164  CE2       22.2070   79.5560   38.9340 C.ar  349  TRP349      0.0810
    165  CE3       19.7940   79.5280   38.7170 C.ar  349  TRP349      0.0012
    166  CZ2       22.3100   80.7250   38.1760 C.ar  349  TRP349      0.0191
    167  CZ3       19.8960   80.6900   37.9640 C.ar  349  TRP349      0.0001
    168  CH2       21.1460   81.2760   37.7000 C.ar  349  TRP349      0.0015
@<TRIPOS>BOND
     1    96    97    1
     2    97    98    1
     3    97   100    1
     4    98    99    2
     5   100   101    1
     6   101   102    1
     7    80    81    1
     8   103   102   ar
     9    81    82    1
    10    81    84    1
    11   102   104   ar
    12    82    83    2
    13   105   106    1
    14    88    89    1
    15    86    85   ar
    16    84    85    1
    17    90    89    1
    18    90    91    2
    19    77    76    1
    20    77    78    1
    21    85    87   ar
    22    76    75    1
    23    89    92    1
    24    72    75    1
    25    72    71    1
    26    72    73    1
    27   106   109    1
    28   106   107    1
    29    79    78    1
    30    73    74    2
    31   109   110    1
    32   107   108    2
    33   112   111   ar
    34   110   111    1
    35    92    93    1
    36   125   126    1
    37   111   113   ar
    38   129   126    1
    39   129   130    1
    40    93    95   am
    41    93    94    2
    42   135   136    1
    43   126   127    1
    44   139   136    1
    45   139   140    1
    46   136   137    1
    47   130   132   ar
    48   130   131   ar
    49   132   134   ar
    50   143   141   ar
    51    58    57    1
    52   142   141   ar
    53   141   140    1
    54   127   128    2
    55    21    22    1
    56    21    20    1
    57   131   133   ar
    58   117   116    2
    59   116   115    1
    60    16    17    1
    61   134   133   ar
    62    22    23    1
    63   137   138    2
    64   123   122    1
    65   118   115    1
    66   118   119    1
    67    57    59    1
    68    57    54    1
    69    17    20    1
    70    17    18    1
    71    54    53    1
    72    54    55    1
    73   120   119    1
    74   120   121    1
    75    23    24    1
    76   115   114    1
    77    12    13    1
    78    12     9    1
    79    10     9    1
    80    10    11    2
    81    13    14   ar
    82    13    15   ar
    83   122   121    2
    84   122   124    1
    85     9     8    1
    86    18    19    2
    87    56    55    2
    88    60    61    1
    89    61    62    1
    90    61    64    1
    91    62    63    2
    92   152   154   ar
    93   152   150   ar
    94    68    66   ar
    95    68    70   ar
    96    66    65   ar
    97   154   153   ar
    98    70    69   ar
    99   150   149   ar
   100    65    64    1
   101    65    67   ar
   102    69    67   ar
   103    41    40    1
   104   144   145    1
   105   153   151   ar
   106   149   151   ar
   107   149   148    1
   108    40    39    1
   109   145   148    1
   110   145   146    1
   111    39    38    1
   112    51    50    1
   113    52    50    1
   114    50    49    2
   115     6     5    1
   116    38    37    1
   117   147   146    2
   118    37    34    1
   119    36    35    2
   120    49    48    1
   121   168   167   ar
   122   168   166   ar
   123    48    47    1
   124   167   165   ar
   125   166   164   ar
   126     3     4    2
   127     3     2    1
   128    33    34    1
   129    34    35    1
   130    35    42   am
   131     5     2    1
   132     5     7    1
   133   165   162   ar
   134    47    46    1
   135    32    30    1
   136   164   162   ar
   137   164   163   ar
   138    46    43    1
   139     2     1    1
   140   162   160   ar
   141   163   161   ar
   142    29    30    1
   143    29    26    1
   144    42    43    1
   145    30    31    1
   146   160   161   ar
   147   160   159    1
   148    25    26    1
   149    43    44    1
   150   155   156    1
   151    44    45    2
   152   159   156    1
   153    26    27    1
   154   156   157    1
   155    27    28    2
   156   157   158    2
