@<TRIPOS>MOLECULE
tmp/2pq2A00.pdb
 146 143 0 0 0
SMALL
GASTEIGER

@<TRIPOS>ATOM
      1  N        -22.5650  -13.3890   36.9540 N.3    69  HIS69      -0.1241
      2  CA       -21.7670  -14.5070   36.4370 C.3    69  HIS69       0.1621
      3  C        -22.2420  -14.9780   35.0550 C.2    69  HIS69       0.2264
      4  O        -21.4450  -15.0870   34.1200 O.2    69  HIS69      -0.2867
      5  CB       -21.8120  -15.6650   37.4420 C.3    69  HIS69       0.0745
      6  CG       -20.8560  -16.7790   37.1460 C.ar   69  HIS69       0.0817
      7  ND1      -21.2190  -17.9020   36.4330 N.ar   69  HIS69      -0.2268
      8  CD2      -19.5590  -16.9570   37.4930 C.ar   69  HIS69       0.1154
      9  CE1      -20.1840  -18.7180   36.3440 C.ar   69  HIS69       0.1986
     10  NE2      -19.1650  -18.1670   36.9790 N.ar   69  HIS69      -0.2212
     11  N        -20.5410  -23.2440   32.9140 N.3   132  SER132     -0.1202
     12  CA       -19.5280  -22.7070   33.8140 C.3   132  SER132      0.2020
     13  C        -19.9510  -22.9220   35.2660 C.2   132  SER132      0.2619
     14  O        -20.1670  -21.9690   36.0220 O.2   132  SER132     -0.2717
     15  CB       -19.2890  -21.2270   33.5170 C.3   132  SER132      0.2103
     16  OG       -18.6370  -21.0610   32.2680 O.3   132  SER132     -0.2182
     17  N        -20.0770  -24.1930   35.6400 N.am  133  LEU133     -0.1965
     18  CA       -20.5480  -24.5840   36.9620 C.3   133  LEU133      0.1728
     19  C        -20.0430  -25.9780   37.3070 C.2   133  LEU133      0.2617
     20  O        -19.5140  -26.6900   36.4510 O.2   133  LEU133     -0.2715
     21  CB       -22.0850  -24.5350   37.0430 C.3   133  LEU133      0.0311
     22  CG       -22.9390  -25.3240   36.0360 C.3   133  LEU133      0.0022
     23  CD1      -22.9530  -26.8260   36.3310 C.3   133  LEU133      0.0001
     24  CD2      -24.3560  -24.7850   36.0180 C.3   133  LEU133      0.0001
     25  N        -20.2070  -26.3550   38.5690 N.am  134  GLY134     -0.1940
     26  CA       -19.8950  -27.7020   39.0070 C.3   134  GLY134      0.2014
     27  C        -19.7530  -27.8140   40.5070 C.2   134  GLY134      0.2639
     28  O        -19.8510  -26.8190   41.2320 O.2   134  GLY134     -0.2714
     29  N        -19.5300  -29.0400   40.9640 N.am  135  GLY135     -0.1954
     30  CA       -19.2940  -29.3290   42.3730 C.3   135  GLY135      0.1869
     31  C        -18.7000  -30.7170   42.4820 C.2   135  GLY135      0.2309
     32  O        -18.0870  -31.2030   41.5320 O.2   135  GLY135     -0.2863
     33  N        -17.6930  -27.7210   29.4740 N.3   157  VAL157     -0.1231
     34  CA       -17.8310  -27.5720   30.9300 C.3   157  VAL157      0.1692
     35  C        -16.5320  -27.1120   31.5970 C.2   157  VAL157      0.2592
     36  O        -15.4390  -27.4460   31.1360 O.2   157  VAL157     -0.2718
     37  CB       -18.3450  -28.8710   31.6170 C.3   157  VAL157      0.0266
     38  CG1      -19.6380  -29.3630   30.9600 C.3   157  VAL157      0.0020
     39  CG2      -17.2840  -29.9730   31.5910 C.3   157  VAL157      0.0020
     40  N        -16.6600  -26.3400   32.6750 N.am  158  ALA158     -0.1966
     41  CA       -15.4930  -25.8610   33.4200 C.3   158  ALA158      0.1728
     42  C        -14.8170  -27.0040   34.1640 C.2   158  ALA158      0.2616
     43  O        -15.4960  -27.8680   34.7140 O.2   158  ALA158     -0.2715
     44  CB       -15.8910  -24.7570   34.3930 C.3   158  ALA158      0.0334
     45  N        -13.4840  -27.0080   34.1740 N.am  159  ALA159     -0.1963
     46  CA       -12.7200  -28.0110   34.9240 C.3   159  ALA159      0.1728
     47  C        -12.8660  -27.8330   36.4380 C.2   159  ALA159      0.2617
     48  O        -12.7750  -28.8020   37.1870 O.2   159  ALA159     -0.2715
     49  CB       -11.2520  -27.9780   34.5280 C.3   159  ALA159      0.0334
     50  N        -13.0930  -26.5920   36.8690 N.am  160  GLY160     -0.1940
     51  CA       -13.2180  -26.2510   38.2870 C.3   160  GLY160      0.2014
     52  C        -11.9970  -25.5140   38.8100 C.2   160  GLY160      0.2639
     53  O        -10.9230  -25.5880   38.2110 O.2   160  GLY160     -0.2714
     54  N        -12.1530  -24.8120   39.9340 N.am  161  ASN161     -0.1958
     55  CA       -11.0780  -23.9490   40.4440 C.3   161  ASN161      0.1819
     56  C        -10.4570  -24.3880   41.7670 C.2   161  ASN161      0.2621
     57  O        -10.1680  -23.5510   42.6260 O.2   161  ASN161     -0.2715
     58  CB       -11.5610  -22.5060   40.6020 C.3   161  ASN161      0.1195
     59  CG       -12.4000  -22.0350   39.4480 C.2   161  ASN161      0.2630
     60  OD1      -12.0400  -22.1790   38.2790 O.2   161  ASN161     -0.2716
     61  ND2      -13.5320  -21.4430   39.7780 N.am  161  ASN161     -0.0877
     62  N        -10.2280  -25.6860   41.9240 N.am  162  ASN162     -0.1972
     63  CA        -9.7060  -26.2150   43.1860 C.3   162  ASN162      0.1688
     64  C         -8.2170  -26.5620   43.1440 C.2   162  ASN162      0.2292
     65  O         -7.6810  -27.1090   44.1160 O.2   162  ASN162     -0.2864
     66  CB       -10.4980  -27.4550   43.6150 C.3   162  ASN162      0.1181
     67  CG       -11.9940  -27.2890   43.4280 C.2   162  ASN162      0.2629
     68  OD1      -12.6970  -26.7920   44.3080 O.2   162  ASN162     -0.2716
     69  ND2      -12.4870  -27.7130   42.2750 N.am  162  ASN162     -0.0877
     70  N        -14.7760  -34.1070   40.3440 N.3   169  TYR169     -0.1227
     71  CA       -15.7380  -33.0290   40.1520 C.3   169  TYR169      0.1736
     72  C        -16.6660  -33.2880   38.9720 C.2   169  TYR169      0.2596
     73  O        -16.2890  -33.9610   38.0140 O.2   169  TYR169     -0.2718
     74  CB       -15.0060  -31.6940   40.0040 C.3   169  TYR169      0.0548
     75  CG       -14.1710  -31.3390   41.2160 C.ar  169  TYR169     -0.0200
     76  CD1      -14.7560  -30.7620   42.3450 C.ar  169  TYR169     -0.0009
     77  CD2      -12.7990  -31.6050   41.2460 C.ar  169  TYR169     -0.0009
     78  CE1      -13.9950  -30.4380   43.4660 C.ar  169  TYR169      0.0417
     79  CE2      -12.0280  -31.2890   42.3680 C.ar  169  TYR169      0.0417
     80  CZ       -12.6380  -30.7060   43.4730 C.ar  169  TYR169      0.1957
     81  OH       -11.8920  -30.3830   44.5840 O.3   169  TYR169     -0.2866
     82  N        -17.8800  -32.7510   39.0630 N.am  170  SER170     -0.1938
     83  CA       -18.9160  -32.9650   38.0510 C.3   170  SER170      0.2040
     84  C        -19.5900  -31.6490   37.6520 C.2   170  SER170      0.2485
     85  O        -19.8100  -30.7860   38.5080 O.2   170  SER170     -0.2729
     86  CB       -19.9650  -33.9510   38.5700 C.3   170  SER170      0.2129
     87  OG       -19.4500  -35.2690   38.6130 O.3   170  SER170     -0.2179
     88  N        -19.9480  -31.4960   36.3530 N.am  171  PRO171     -0.2715
     89  CA       -19.7940  -32.4470   35.2390 C.3   171  PRO171      0.1536
     90  C        -18.4010  -32.5190   34.5820 C.2   171  PRO171      0.2598
     91  O        -18.2480  -33.2000   33.5670 O.2   171  PRO171     -0.2715
     92  CB       -20.8410  -31.9640   34.2280 C.3   171  PRO171      0.0310
     93  CG       -20.9140  -30.5000   34.4460 C.3   171  PRO171      0.0237
     94  CD       -20.6190  -30.2540   35.9160 C.3   171  PRO171      0.0939
     95  N        -17.4010  -31.8500   35.1620 N.am  172  ALA172     -0.1978
     96  CA       -16.0260  -31.8640   34.6280 C.3   172  ALA172      0.1597
     97  C        -15.4910  -33.2670   34.3150 C.2   172  ALA172      0.2287
     98  O        -14.8010  -33.4620   33.3130 O.2   172  ALA172     -0.2864
     99  CB       -15.0720  -31.1460   35.5870 C.3   172  ALA172      0.0319
    100  N         -8.1840  -26.5030   37.8530 N.3   194  ASN194     -0.1240
    101  CA        -8.0960  -27.9530   37.9590 C.3   194  ASN194      0.1653
    102  C         -7.3030  -28.5100   36.7790 C.2   194  ASN194      0.2266
    103  O         -7.1400  -27.8440   35.7530 O.2   194  ASN194     -0.2867
    104  CB        -9.4900  -28.6010   38.0240 C.3   194  ASN194      0.1155
    105  CG       -10.1040  -28.5650   39.4230 C.2   194  ASN194      0.2627
    106  OD1      -11.2540  -28.9670   39.6140 O.2   194  ASN194     -0.2716
    107  ND2       -9.3470  -28.0870   40.4000 N.am  194  ASN194     -0.0877
    108  N        -13.0210  -10.7020   35.6980 N.3   220  ILE220     -0.1231
    109  CA       -13.0020  -11.7470   36.7240 C.3   220  ILE220      0.1692
    110  C        -12.2220  -12.9600   36.2220 C.2   220  ILE220      0.2593
    111  O        -11.9090  -13.0590   35.0250 O.2   220  ILE220     -0.2718
    112  CB       -14.4290  -12.1540   37.2300 C.3   220  ILE220      0.0266
    113  CG1      -15.3140  -12.6700   36.0860 C.3   220  ILE220      0.0019
    114  CG2      -15.0970  -11.0020   37.9940 C.3   220  ILE220      0.0020
    115  CD1      -16.6230  -13.3200   36.5510 C.3   220  ILE220      0.0001
    116  N        -11.9110  -13.8720   37.1410 N.am  221  SER221     -0.1938
    117  CA       -11.0790  -15.0350   36.8370 C.3   221  SER221      0.2055
    118  C        -11.7510  -16.3540   37.2140 C.2   221  SER221      0.2644
    119  O        -12.5150  -16.4270   38.1830 O.2   221  SER221     -0.2714
    120  CB        -9.7290  -14.9180   37.5510 C.3   221  SER221      0.2130
    121  OG        -9.0340  -13.7530   37.1420 O.3   221  SER221     -0.2179
    122  N        -11.4590  -17.3920   36.4400 N.am  222  GLY222     -0.1939
    123  CA       -11.9520  -18.7350   36.7250 C.3   222  GLY222      0.2014
    124  C        -11.9990  -19.6260   35.5010 C.2   222  GLY222      0.2640
    125  O        -11.9020  -19.1440   34.3670 O.2   222  GLY222     -0.2714
    126  N        -12.1460  -20.9340   35.7280 N.am  223  THR223     -0.1936
    127  CA       -12.3830  -21.8760   34.6320 C.3   223  THR223      0.2028
    128  C        -13.7550  -21.5870   34.0120 C.2   223  THR223      0.2643
    129  O        -14.0130  -21.9590   32.8660 O.2   223  THR223     -0.2714
    130  CB       -12.2920  -23.3590   35.0770 C.3   223  THR223      0.1808
    131  OG1      -13.1920  -23.5970   36.1670 O.3   223  THR223     -0.2208
    132  CG2      -10.8570  -23.7200   35.4940 C.3   223  THR223      0.0379
    133  N        -14.6060  -20.9060   34.7840 N.am  224  SER224     -0.1935
    134  CA       -15.8830  -20.3520   34.3180 C.3   224  SER224      0.2055
    135  C        -15.7070  -19.3930   33.1430 C.2   224  SER224      0.2642
    136  O        -16.5980  -19.2790   32.3040 O.2   224  SER224     -0.2714
    137  CB       -16.5810  -19.5810   35.4430 C.3   224  SER224      0.2130
    138  OG       -17.3910  -20.4100   36.2570 O.3   224  SER224     -0.2179
    139  N        -14.5710  -18.6940   33.1100 N.am  225  MET225     -0.1976
    140  CA       -14.2640  -17.7220   32.0530 C.3   225  MET225      0.1605
    141  C        -13.6120  -18.3860   30.8390 C.2   225  MET225      0.2287
    142  O        -13.7350  -17.8960   29.7140 O.2   225  MET225     -0.2864
    143  CB       -13.3420  -16.6140   32.5800 C.3   225  MET225      0.0413
    144  CG       -13.9950  -15.5630   33.4810 C.3   225  MET225      0.0598
    145  SD       -14.6390  -16.2130   35.0430 S.3   225  MET225     -0.1393
    146  CE       -16.3960  -16.2440   34.6870 C.3   225  MET225      0.0692
@<TRIPOS>BOND
     1    33    34    1
     2   142   141    2
     3   141   140    1
     4    34    35    1
     5    34    37    1
     6    38    37    1
     7    36    35    2
     8    39    37    1
     9    35    40   am
    10   140   143    1
    11   140   139    1
    12    16    15    1
    13   136   135    2
    14   143   144    1
    15    40    41    1
    16   129   128    2
    17    11    12    1
    18   139   135   am
    19   135   134    1
    20    98    97    2
    21    41    42    1
    22    41    44    1
    23   144   145    1
    24    15    12    1
    25    91    90    2
    26    12    13    1
    27   128   127    1
    28   128   133   am
    29     4     3    2
    30    42    45   am
    31    42    43    2
    32    45    46    1
    33    92    93    1
    34    92    89    1
    35    97    96    1
    36   134   133    1
    37   134   137    1
    38   125   124    2
    39    93    94    1
    40    49    46    1
    41    90    95   am
    42    90    89    1
    43    96    95    1
    44    96    99    1
    45   127   130    1
    46   127   126    1
    47   146   145    1
    48    46    47    1
    49   111   110    2
    50     3     2    1
    51   130   132    1
    52   130   131    1
    53    89    88    1
    54    13    17   am
    55    13    14    2
    56   137   138    1
    57   124   126   am
    58   124   123    1
    59    17    18    1
    60   108   109    1
    61   103   102    2
    62    94    88    1
    63    24    22    1
    64    22    23    1
    65    22    21    1
    66   113   115    1
    67   113   112    1
    68   110   109    1
    69   110   116   am
    70     9     7   ar
    71     9    10   ar
    72    88    84   am
    73     7     6   ar
    74     2     1    1
    75     2     5    1
    76    47    50   am
    77    47    48    2
    78   122   123    1
    79   122   118   am
    80    20    19    2
    81   109   112    1
    82   102   101    1
    83   117   116    1
    84   117   118    1
    85   117   120    1
    86    50    51    1
    87    18    21    1
    88    18    19    1
    89    10     8   ar
    90   121   120    1
    91     6     5    1
    92     6     8   ar
    93   118   119    2
    94   112   114    1
    95    19    25   am
    96    84    83    1
    97    84    85    2
    98   100   101    1
    99   101   104    1
   100    73    72    2
   101   104   105    1
   102    83    86    1
   103    83    82    1
   104    53    52    2
   105    60    59    2
   106    51    52    1
   107    25    26    1
   108    86    87    1
   109    52    54   am
   110    72    82   am
   111    72    71    1
   112    26    27    1
   113   105   106    2
   114   105   107   am
   115    59    61   am
   116    59    58    1
   117    54    55    1
   118    74    71    1
   119    74    75    1
   120    71    70    1
   121    55    58    1
   122    55    56    1
   123    27    29   am
   124    27    28    2
   125    29    30    1
   126    75    77   ar
   127    75    76   ar
   128    77    79   ar
   129    32    31    2
   130    56    62   am
   131    56    57    2
   132    62    63    1
   133    69    67   am
   134    76    78   ar
   135    79    80   ar
   136    30    31    1
   137    64    63    1
   138    64    65    2
   139    63    66    1
   140    67    66    1
   141    67    68    2
   142    78    80   ar
   143    80    81    1
