@<TRIPOS>MOLECULE
tmp/2pqcA00.pdb
 203 190 0 0 0
SMALL
GASTEIGER

@<TRIPOS>ATOM
      1  N       -130.9030   34.3990  135.3310 N.3    23  LYS23      -0.1231
      2  CA      -130.5590   33.0020  135.0790 C.3    23  LYS23       0.1693
      3  C       -129.1300   32.8450  134.5330 C.2    23  LYS23       0.2592
      4  O       -128.3840   31.9930  134.9970 O.2    23  LYS23      -0.2718
      5  CB      -131.5310   32.3610  134.0810 C.3    23  LYS23       0.0285
      6  CG      -131.3390   30.8330  133.9850 C.3    23  LYS23       0.0035
      7  CD      -132.5840   30.1260  133.4100 C.3    23  LYS23       0.0206
      8  CE      -132.9480   30.6370  132.0170 C.3    23  LYS23       0.1093
      9  NZ      -131.8770   30.3310  131.0110 N.3    23  LYS23      -0.1314
     10  N       -128.7550   33.6470  133.5300 N.am   24  SER24      -0.1952
     11  CA      -127.4010   33.5360  132.9690 C.3    24  SER24       0.1924
     12  C       -126.3290   33.7050  134.0470 C.2    24  SER24       0.2314
     13  O       -125.3840   32.9260  134.1240 O.2    24  SER24      -0.2863
     14  CB      -127.1910   34.5900  131.8660 C.3    24  SER24       0.2116
     15  OG      -127.9950   34.2700  130.7290 O.3    24  SER24      -0.2180
     16  N       -123.6860   30.7870  135.9970 N.3    28  ARG28      -0.1245
     17  CA      -122.2490   31.0310  136.1110 C.3    28  ARG28       0.1563
     18  C       -121.7630   31.1930  137.5470 C.2    28  ARG28       0.2260
     19  O       -120.5950   30.9220  137.8430 O.2    28  ARG28      -0.2867
     20  CB      -121.8590   32.2640  135.2910 C.3    28  ARG28       0.0307
     21  CG      -121.9810   32.0200  133.7830 C.3    28  ARG28       0.0489
     22  CD      -122.1040   33.3270  132.9800 C.3    28  ARG28       0.2205
     23  NE      -122.0800   33.0870  131.5280 N.pl3  28  ARG28      -0.0865
     24  CZ      -123.1420   32.7180  130.8070 C.cat  28  ARG28       0.5346
     25  NH1     -124.3170   32.5590  131.3890 N.pl3  28  ARG28       0.1354
     26  NH2     -123.0350   32.4730  129.5020 N.pl3  28  ARG28       0.1354
     27  N       -133.4920   25.0500  136.0920 N.3    50  ASP50      -0.1239
     28  CA      -132.2760   25.0800  135.2890 C.3    50  ASP50       0.1674
     29  C       -131.0330   25.2990  136.1540 C.2    50  ASP50       0.2266
     30  O       -130.0470   24.5850  135.9990 O.2    50  ASP50      -0.2867
     31  CB      -132.3290   26.1940  134.2370 C.3    50  ASP50       0.1410
     32  CG      -133.1640   25.8270  133.0140 C.2    50  ASP50       0.3668
     33  OD1     -133.8620   24.7840  133.0140 O.co2  50  ASP50      -0.2456
     34  OD2     -133.1320   26.6110  132.0440 O.co2  50  ASP50      -0.2456
     35  N       -133.6190   20.7070  131.2980 N.3    93  ASN93      -0.1225
     36  CA      -134.0130   21.5860  130.1830 C.3    93  ASN93       0.1785
     37  C       -132.9620   22.6510  129.8760 C.2    93  ASN93       0.2597
     38  O       -133.1430   23.4320  128.9420 O.2    93  ASN93      -0.2718
     39  CB      -135.3110   22.3160  130.5860 C.3    93  ASN93       0.1169
     40  CG      -136.0270   22.9680  129.4190 C.2    93  ASN93       0.2627
     41  OD1     -136.1240   24.2030  129.3420 O.2    93  ASN93      -0.2716
     42  ND2     -136.5480   22.1450  128.5050 N.am   93  ASN93      -0.0877
     43  N       -131.8750   22.6710  130.6550 N.am   94  ALA94      -0.1966
     44  CA      -130.8750   23.7450  130.5720 C.3    94  ALA94       0.1728
     45  C       -129.6780   23.6770  129.6300 C.2    94  ALA94       0.2616
     46  O       -128.6330   23.1050  129.9830 O.2    94  ALA94      -0.2715
     47  CB      -130.3710   24.0370  132.0110 C.3    94  ALA94       0.0334
     48  N       -129.7980   24.3230  128.4720 N.am   95  ALA95      -0.1963
     49  CA      -128.6870   24.3350  127.5100 C.3    95  ALA95       0.1728
     50  C       -127.5010   25.1260  128.0570 C.2    95  ALA95       0.2616
     51  O       -126.3390   24.7810  127.8020 O.2    95  ALA95      -0.2715
     52  CB      -129.1270   24.9370  126.2050 C.3    95  ALA95       0.0334
     53  N       -127.7820   26.1980  128.7900 N.am   96  THR96      -0.1951
     54  CA      -126.6940   26.9970  129.3500 C.3    96  THR96       0.1897
     55  C       -125.8030   26.1330  130.2370 C.2    96  THR96       0.2313
     56  O       -124.5790   26.1220  130.0960 O.2    96  THR96      -0.2863
     57  CB      -127.2280   28.1610  130.1890 C.3    96  THR96       0.1794
     58  OG1     -128.0140   29.0240  129.3620 O.3    96  THR96      -0.2208
     59  CG2     -126.0700   28.9440  130.7800 C.3    96  THR96       0.0378
     60  N       -124.0820   23.2480  127.8550 N.3    99  ARG99      -0.1245
     61  CA      -123.0350   23.6930  126.9450 C.3    99  ARG99       0.1563
     62  C       -121.8230   24.2750  127.6380 C.2    99  ARG99       0.2260
     63  O       -120.6840   24.0090  127.2430 O.2    99  ARG99      -0.2867
     64  CB      -123.6230   24.6620  125.9460 C.3    99  ARG99       0.0307
     65  CG      -124.6060   23.9710  124.9890 C.3    99  ARG99       0.0489
     66  CD      -124.8810   24.8600  123.8330 C.3    99  ARG99       0.2205
     67  NE      -125.8360   24.3310  122.8510 N.pl3  99  ARG99      -0.0865
     68  CZ      -126.9700   24.9500  122.5100 C.cat  99  ARG99       0.5346
     69  NH1     -127.3060   26.0940  123.0920 N.pl3  99  ARG99       0.1354
     70  NH2     -127.7260   24.4820  121.5260 N.pl3  99  ARG99       0.1354
     71  N       -131.6120   19.5810  120.8130 N.3   123  ARG123     -0.1245
     72  CA      -130.8630   20.7890  120.4400 C.3   123  ARG123      0.1563
     73  C       -129.4330   20.5330  119.9480 C.2   123  ARG123      0.2260
     74  O       -128.7660   19.5870  120.3720 O.2   123  ARG123     -0.2867
     75  CB      -130.8980   21.7780  121.6130 C.3   123  ARG123      0.0307
     76  CG      -132.3590   22.2120  121.8930 C.3   123  ARG123      0.0489
     77  CD      -132.5260   23.0380  123.1400 C.3   123  ARG123      0.2205
     78  NE      -131.9480   24.3760  122.9870 N.pl3 123  ARG123     -0.0865
     79  CZ      -131.8960   25.2510  123.9820 C.cat 123  ARG123      0.5346
     80  NH1     -132.3890   24.9110  125.1700 N.pl3 123  ARG123      0.1354
     81  NH2     -131.3490   26.4510  123.7920 N.pl3 123  ARG123      0.1354
     82  N       -122.0380   23.0280  117.7780 N.3   127  ARG127     -0.1245
     83  CA      -121.4620   24.3700  117.8800 C.3   127  ARG127      0.1563
     84  C       -120.4420   24.4860  119.0240 C.2   127  ARG127      0.2260
     85  O       -119.5210   25.3170  118.9680 O.2   127  ARG127     -0.2867
     86  CB      -122.5890   25.3980  118.0170 C.3   127  ARG127      0.0307
     87  CG      -123.5530   25.0560  119.1260 C.3   127  ARG127      0.0489
     88  CD      -124.6620   26.0640  119.1940 C.3   127  ARG127      0.2205
     89  NE      -125.3810   26.1610  117.9280 N.pl3 127  ARG127     -0.0865
     90  CZ      -126.1770   27.1780  117.6340 C.cat 127  ARG127      0.5346
     91  NH1     -126.3420   28.1580  118.5170 N.pl3 127  ARG127      0.1354
     92  NH2     -126.7830   27.2360  116.4650 N.pl3 127  ARG127      0.1354
     93  N       -124.0780   34.1890  116.5170 N.3   167  ALA167     -0.1231
     94  CA      -124.0620   35.0650  117.6860 C.3   167  ALA167      0.1694
     95  C       -124.4830   34.3500  118.9660 C.2   167  ALA167      0.2593
     96  O       -125.5300   34.6580  119.5450 O.2   167  ALA167     -0.2718
     97  CB      -124.9580   36.2830  117.4260 C.3   167  ALA167      0.0304
     98  N       -123.6340   33.4160  119.3980 N.am  168  SER168     -0.1938
     99  CA      -123.8730   32.5940  120.5790 C.3   168  SER168      0.2055
    100  C       -122.9640   32.8800  121.7580 C.2   168  SER168      0.2643
    101  O       -121.7560   32.6320  121.6800 O.2   168  SER168     -0.2714
    102  CB      -123.7010   31.1180  120.2110 C.3   168  SER168      0.2130
    103  OG      -123.8740   30.2820  121.3540 O.3   168  SER168     -0.2179
    104  N       -123.5380   33.3810  122.8470 N.am  169  ALA169     -0.1963
    105  CA      -122.7370   33.6100  124.0500 C.3   169  ALA169      0.1728
    106  C       -122.3950   32.2480  124.6700 C.2   169  ALA169      0.2616
    107  O       -121.3630   32.1230  125.3100 O.2   169  ALA169     -0.2715
    108  CB      -123.5000   34.4630  125.0690 C.3   169  ALA169      0.0334
    109  N       -123.2300   31.2280  124.4740 N.am  170  GLN170     -0.1977
    110  CA      -122.9040   29.9120  125.0430 C.3   170  GLN170      0.1601
    111  C       -121.6620   29.2940  124.3810 C.2   170  GLN170      0.2287
    112  O       -120.8360   28.6670  125.0590 O.2   170  GLN170     -0.2864
    113  CB      -124.0940   28.9590  124.9250 C.3   170  GLN170      0.0394
    114  CG      -125.2630   29.3710  125.8060 C.3   170  GLN170      0.0908
    115  CD      -126.3600   28.3250  125.8340 C.2   170  GLN170      0.2608
    116  OE1     -126.1820   27.2180  125.3440 O.2   170  GLN170     -0.2717
    117  NE2     -127.4850   28.6620  126.4240 N.am  170  GLN170     -0.0878
    118  N       -124.1470   38.4130  125.0380 N.3   195  ARG195     -0.1245
    119  CA      -124.0640   38.6670  126.4800 C.3   195  ARG195      0.1563
    120  C       -122.6850   38.2840  127.0050 C.2   195  ARG195      0.2260
    121  O       -122.1170   37.2600  126.6480 O.2   195  ARG195     -0.2867
    122  CB      -125.2060   38.0090  127.2530 C.3   195  ARG195      0.0307
    123  CG      -125.2300   36.5280  127.2720 C.3   195  ARG195      0.0489
    124  CD      -126.5750   36.0490  127.8690 C.3   195  ARG195      0.2205
    125  NE      -127.6770   36.3410  126.9710 N.pl3 195  ARG195     -0.0865
    126  CZ      -128.9550   36.0700  127.2310 C.cat 195  ARG195      0.5346
    127  NH1     -129.3190   35.4980  128.3930 N.pl3 195  ARG195      0.1354
    128  NH2     -129.8770   36.3480  126.3150 N.pl3 195  ARG195      0.1354
    129  N       -132.4620   38.0450  121.8920 N.3   320  ILE320     -0.1231
    130  CA      -132.8610   36.7780  121.2700 C.3   320  ILE320      0.1692
    131  C       -133.9330   35.9930  122.0230 C.2   320  ILE320      0.2592
    132  O       -134.8300   35.4220  121.4050 O.2   320  ILE320     -0.2718
    133  CB      -131.5960   35.8940  120.9680 C.3   320  ILE320      0.0266
    134  CG1     -131.9580   34.7600  119.9920 C.3   320  ILE320      0.0019
    135  CG2     -131.0200   35.3120  122.2660 C.3   320  ILE320      0.0020
    136  CD1     -132.3140   35.2560  118.5860 C.3   320  ILE320      0.0001
    137  N       -133.8990   36.0140  123.3480 N.am  321  ASP321     -0.1974
    138  CA      -134.9000   35.2820  124.1100 C.3   321  ASP321      0.1709
    139  C       -136.1990   36.0500  124.2950 C.2   321  ASP321      0.2293
    140  O       -137.1750   35.4900  124.7830 O.2   321  ASP321     -0.2864
    141  CB      -134.3340   34.8770  125.4760 C.3   321  ASP321      0.1436
    142  CG      -133.1170   33.9810  125.3420 C.2   321  ASP321      0.3671
    143  OD1     -133.1110   33.1230  124.4220 O.co2 321  ASP321     -0.2456
    144  OD2     -132.1700   34.1380  126.1470 O.co2 321  ASP321     -0.2456
    145  N       -131.5700   31.6500  114.8040 N.3   344  GLU344     -0.1245
    146  CA      -131.2740   31.0550  116.0950 C.3   344  GLU344      0.1567
    147  C       -132.5010   30.6550  116.8860 C.2   344  GLU344      0.2260
    148  O       -132.4160   29.7900  117.7480 O.2   344  GLU344     -0.2867
    149  CB      -130.3910   31.9660  116.9490 C.3   344  GLU344      0.0388
    150  CG      -128.9410   31.9300  116.5270 C.3   344  GLU344      0.1160
    151  CD      -128.2860   30.6070  116.8620 C.2   344  GLU344      0.3649
    152  OE1     -128.1460   30.3140  118.0700 O.co2 344  GLU344     -0.2457
    153  OE2     -127.9380   29.8630  115.9240 O.co2 344  GLU344     -0.2457
    154  N       -133.8690   26.6220  119.8540 N.3   348  LYS348     -0.1231
    155  CA      -134.0050   26.8490  121.2860 C.3   348  LYS348      0.1693
    156  C       -134.7970   25.7130  121.9490 C.2   348  LYS348      0.2591
    157  O       -134.9190   24.6370  121.3590 O.2   348  LYS348     -0.2718
    158  CB      -134.6670   28.2120  121.5310 C.3   348  LYS348      0.0285
    159  CG      -133.8650   29.3740  120.9130 C.3   348  LYS348      0.0035
    160  CD      -132.5420   29.6090  121.6700 C.3   348  LYS348      0.0206
    161  CE      -131.7960   30.7770  121.0330 C.3   348  LYS348      0.1093
    162  NZ      -130.5460   31.1060  121.7670 N.3   348  LYS348     -0.1314
    163  N       -135.3110   25.9390  123.1590 N.am  349  GLU349     -0.1979
    164  CA      -136.0810   24.9070  123.8740 C.3   349  GLU349      0.1602
    165  C       -137.1050   24.2840  122.9240 C.2   349  GLU349      0.2287
    166  O       -137.3570   23.0730  122.9600 O.2   349  GLU349     -0.2864
    167  CB      -136.7850   25.5070  125.0930 C.3   349  GLU349      0.0415
    168  CG      -135.8680   25.6380  126.2810 C.3   349  GLU349      0.1163
    169  CD      -135.2240   26.9730  126.3650 C.2   349  GLU349      0.3649
    170  OE1     -134.7620   27.4960  125.3230 O.co2 349  GLU349     -0.2457
    171  OE2     -135.1840   27.5100  127.4950 O.co2 349  GLU349     -0.2457
    172  N       -138.6310   28.3030  118.3800 N.3   352  ARG352     -0.1245
    173  CA      -139.4500   29.4270  118.8260 C.3   352  ARG352      0.1563
    174  C       -140.1610   30.1910  117.7400 C.2   352  ARG352      0.2260
    175  O       -141.2320   30.7560  117.9770 O.2   352  ARG352     -0.2867
    176  CB      -138.6310   30.3870  119.6960 C.3   352  ARG352      0.0307
    177  CG      -138.4690   29.8130  121.0840 C.3   352  ARG352      0.0489
    178  CD      -137.5110   30.5860  121.9510 C.3   352  ARG352      0.2205
    179  NE      -137.5810   30.0250  123.2980 N.pl3 352  ARG352     -0.0865
    180  CZ      -136.7240   30.2830  124.2750 C.cat 352  ARG352      0.5346
    181  NH1     -135.7020   31.1100  124.0620 N.pl3 352  ARG352      0.1354
    182  NH2     -136.8910   29.7050  125.4650 N.pl3 352  ARG352      0.1354
    183  N       -140.7360   27.0440  128.2620 N.3   399  HIS399     -0.1226
    184  CA      -141.2330   27.9970  129.2550 C.3   399  HIS399      0.1752
    185  C       -141.5460   29.3930  128.7080 C.2   399  HIS399      0.2595
    186  O       -142.5160   30.0290  129.1480 O.2   399  HIS399     -0.2718
    187  CB      -140.2400   28.1090  130.4420 C.3   399  HIS399      0.0759
    188  CG      -138.9130   28.7150  130.1000 C.ar  399  HIS399      0.0818
    189  ND1     -138.1300   28.2730  129.0570 N.ar  399  HIS399     -0.2268
    190  CD2     -138.2200   29.7280  130.6840 C.ar  399  HIS399      0.1154
    191  CE1     -137.0150   28.9900  129.0080 C.ar  399  HIS399      0.1986
    192  NE2     -137.0500   29.8780  129.9850 N.ar  399  HIS399     -0.2212
    193  N       -140.7450   29.8960  127.7660 N.am  400  ARG400     -0.1980
    194  CA      -141.0160   31.2300  127.2330 C.3   400  ARG400      0.1597
    195  C       -142.2230   31.2490  126.3090 C.2   400  ARG400      0.2287
    196  O       -142.8530   32.2860  126.1600 O.2   400  ARG400     -0.2864
    197  CB      -139.7900   31.8200  126.5240 C.3   400  ARG400      0.0334
    198  CG      -138.5780   32.0010  127.4500 C.3   400  ARG400      0.0492
    199  CD      -137.4970   32.9700  126.8920 C.3   400  ARG400      0.2205
    200  NE      -136.3040   32.7880  127.7130 N.pl3 400  ARG400     -0.0865
    201  CZ      -136.1890   33.2480  128.9530 C.cat 400  ARG400      0.5346
    202  NH1     -137.1660   33.9630  129.5000 N.pl3 400  ARG400      0.1354
    203  NH2     -135.1360   32.8810  129.6940 N.pl3 400  ARG400      0.1354
@<TRIPOS>BOND
     1   145   146    1
     2   153   151   ar
     3   146   147    1
     4   146   149    1
     5    92    90    1
     6    93    94    1
     7   150   151    1
     8   150   149    1
     9   151   152   ar
    10   147   148    2
    11    97    94    1
    12    90    89    2
    13    90    91    1
    14    94    95    1
    15   174   175    2
    16   174   173    1
    17    82    83    1
    18    83    86    1
    19    83    84    1
    20    89    88    1
    21    86    87    1
    22   172   173    1
    23   136   134    1
    24   173   176    1
    25    95    98   am
    26    95    96    2
    27    85    84    2
    28    87    88    1
    29    98    99    1
    30   176   177    1
    31   154   155    1
    32    73    74    2
    33    73    72    1
    34   134   133    1
    35   102    99    1
    36   102   103    1
    37    72    71    1
    38    72    75    1
    39    99   100    1
    40   159   158    1
    41   159   160    1
    42   133   130    1
    43   133   135    1
    44   161   160    1
    45   161   162    1
    46   177   178    1
    47   130   129    1
    48   130   131    1
    49   155   158    1
    50   155   156    1
    51   157   156    2
    52   132   131    2
    53    70    68    1
    54    75    76    1
    55   101   100    2
    56   100   104   am
    57    76    77    1
    58   156   163   am
    59   178   179    1
    60   131   137   am
    61    68    67    2
    62    68    69    1
    63   104   105    1
    64    67    66    1
    65   165   166    2
    66   165   164    1
    67    78    77    1
    68    78    79    2
    69   163   164    1
    70   179   180    2
    71   137   138    1
    72    81    79    1
    73    66    65    1
    74   164   167    1
    75    79    80    1
    76   105   106    1
    77   105   108    1
    78   181   180    1
    79   138   139    1
    80   138   141    1
    81   180   182    1
    82   139   140    2
    83   111   110    1
    84   111   112    2
    85   143   142   ar
    86   109   106   am
    87   109   110    1
    88   106   107    2
    89   113   110    1
    90   113   114    1
    91    65    64    1
    92   118   119    1
    93   167   168    1
    94   170   169   ar
    95   142   141    1
    96   142   144   ar
    97   116   115    2
    98   114   115    1
    99   115   117   am
   100    64    61    1
   101   196   195    2
   102    52    49    1
   103   168   169    1
   104   195   194    1
   105   128   126    1
   106   169   171   ar
   107   119   120    1
   108   119   122    1
   109   197   194    1
   110   197   198    1
   111   121   120    2
   112   199   198    1
   113   199   200    1
   114    61    62    1
   115    61    60    1
   116   125   126    2
   117   125   124    1
   118   126   127    1
   119   194   193    1
   120    63    62    2
   121   122   123    1
   122   123   124    1
   123    49    50    1
   124    49    48    1
   125   200   201    2
   126   193   185   am
   127    51    50    2
   128    50    53   am
   129   183   184    1
   130    48    45   am
   131    42    40   am
   132   185   186    2
   133   185   184    1
   134    53    54    1
   135    38    37    2
   136   201   202    1
   137   201   203    1
   138   191   189   ar
   139   191   192   ar
   140   189   188   ar
   141   184   187    1
   142    41    40    2
   143    54    57    1
   144    54    55    1
   145    58    57    1
   146    40    39    1
   147    26    24    1
   148    45    46    2
   149    45    44    1
   150    37    36    1
   151    37    43   am
   152   192   190   ar
   153    56    55    2
   154   188   187    1
   155   188   190   ar
   156    36    39    1
   157    36    35    1
   158    57    59    1
   159    44    43    1
   160    44    47    1
   161    15    14    1
   162    24    25    1
   163    24    23    2
   164     9     8    1
   165    23    22    1
   166    14    11    1
   167     8     7    1
   168    34    32   ar
   169    11    10    1
   170    11    12    1
   171    22    21    1
   172    32    33   ar
   173    32    31    1
   174     7     6    1
   175    10     3   am
   176    21    20    1
   177     6     5    1
   178    12    13    2
   179     5     2    1
   180    31    28    1
   181     3     4    2
   182     3     2    1
   183     2     1    1
   184    28    27    1
   185    28    29    1
   186    20    17    1
   187    16    17    1
   188    30    29    2
   189    17    18    1
   190    18    19    2
