@<TRIPOS>MOLECULE
tmp/2pqdA00.pdb
 202 189 0 0 0
SMALL
GASTEIGER

@<TRIPOS>ATOM
      1  N       -130.6550   34.3020  134.8430 N.3    23  LYS23      -0.1231
      2  CA      -130.2910   32.9030  134.6250 C.3    23  LYS23       0.1693
      3  C       -128.8680   32.7480  134.0750 C.2    23  LYS23       0.2592
      4  O       -128.1020   31.9150  134.5600 O.2    23  LYS23      -0.2718
      5  CB      -131.2900   32.2350  133.6700 C.3    23  LYS23       0.0285
      6  CG      -131.1040   30.7180  133.4890 C.3    23  LYS23       0.0035
      7  CD      -132.3450   30.0450  132.9050 C.3    23  LYS23       0.0206
      8  CE      -132.6900   30.6060  131.5140 C.3    23  LYS23       0.1093
      9  NZ      -131.6200   30.2040  130.5120 N.3    23  LYS23      -0.1314
     10  N       -128.5210   33.5390  133.0550 N.am   24  SER24      -0.1952
     11  CA      -127.1780   33.4420  132.4960 C.3    24  SER24       0.1924
     12  C       -126.0980   33.6100  133.5580 C.2    24  SER24       0.2314
     13  O       -125.1490   32.8350  133.6260 O.2    24  SER24      -0.2863
     14  CB      -126.9750   34.5150  131.4110 C.3    24  SER24       0.2116
     15  OG      -127.7950   34.2210  130.2980 O.3    24  SER24      -0.2180
     16  N       -123.4390   30.7250  135.5830 N.3    28  ARG28      -0.1245
     17  CA      -122.0140   31.0060  135.6600 C.3    28  ARG28       0.1563
     18  C       -121.5140   31.1700  137.0940 C.2    28  ARG28       0.2260
     19  O       -120.3610   30.8570  137.3820 O.2    28  ARG28      -0.2867
     20  CB      -121.6840   32.2310  134.7870 C.3    28  ARG28       0.0307
     21  CG      -121.8750   31.9560  133.2720 C.3    28  ARG28       0.0489
     22  CD      -121.9720   33.2580  132.4690 C.3    28  ARG28       0.2205
     23  NE      -121.9810   33.0260  131.0070 N.pl3  28  ARG28      -0.0865
     24  CZ      -123.0440   32.6460  130.2990 C.cat  28  ARG28       0.5346
     25  NH1     -124.2150   32.4490  130.8990 N.pl3  28  ARG28       0.1354
     26  NH2     -122.9440   32.4550  128.9780 N.pl3  28  ARG28       0.1354
     27  N       -133.3000   24.9030  135.8230 N.3    50  ASP50      -0.1239
     28  CA      -132.0920   24.9230  134.9980 C.3    50  ASP50       0.1674
     29  C       -130.8390   25.1650  135.8190 C.2    50  ASP50       0.2266
     30  O       -129.8450   24.4590  135.6510 O.2    50  ASP50      -0.2867
     31  CB      -132.1670   26.0270  133.9290 C.3    50  ASP50       0.1410
     32  CG      -133.0570   25.6610  132.7530 C.2    50  ASP50       0.3668
     33  OD1     -133.7160   24.6030  132.7930 O.co2  50  ASP50      -0.2456
     34  OD2     -133.0950   26.4500  131.7810 O.co2  50  ASP50      -0.2456
     35  N       -133.4340   20.7010  130.9170 N.3    93  ASN93      -0.1225
     36  CA      -133.8140   21.5640  129.7950 C.3    93  ASN93       0.1785
     37  C       -132.7700   22.6400  129.4800 C.2    93  ASN93       0.2597
     38  O       -132.9130   23.3820  128.5160 O.2    93  ASN93      -0.2718
     39  CB      -135.1330   22.2820  130.1500 C.3    93  ASN93       0.1169
     40  CG      -135.8190   22.8970  128.9350 C.2    93  ASN93       0.2627
     41  OD1     -135.9480   24.1310  128.8220 O.2    93  ASN93      -0.2716
     42  ND2     -136.2770   22.0360  128.0180 N.am   93  ASN93      -0.0877
     43  N       -131.7180   22.6970  130.2840 N.am   94  ALA94      -0.1966
     44  CA      -130.7470   23.7830  130.1820 C.3    94  ALA94       0.1728
     45  C       -129.6290   23.7320  129.1450 C.2    94  ALA94       0.2617
     46  O       -128.5600   23.1860  129.4140 O.2    94  ALA94      -0.2715
     47  CB      -130.1340   24.0180  131.5680 C.3    94  ALA94       0.0334
     48  N       -129.8600   24.3720  128.0030 N.am   95  GLY95      -0.1940
     49  CA      -128.8370   24.4070  126.9660 C.3    95  GLY95       0.2014
     50  C       -127.5620   25.0420  127.5170 C.2    95  GLY95       0.2639
     51  O       -126.4650   24.4970  127.3580 O.2    95  GLY95      -0.2714
     52  N       -127.7180   26.1770  128.2040 N.am   96  THR96      -0.1950
     53  CA      -126.5760   26.9010  128.7750 C.3    96  THR96       0.1897
     54  C       -125.7080   26.0270  129.6910 C.2    96  THR96       0.2313
     55  O       -124.4830   25.9950  129.5670 O.2    96  THR96      -0.2863
     56  CB      -127.0550   28.1370  129.5920 C.3    96  THR96       0.1794
     57  OG1     -127.8350   28.9980  128.7470 O.3    96  THR96      -0.2208
     58  CG2     -125.8530   28.9280  130.1320 C.3    96  THR96       0.0378
     59  N       -124.0390   23.1940  127.2850 N.3    99  ARG99      -0.1245
     60  CA      -122.9920   23.7160  126.4060 C.3    99  ARG99       0.1563
     61  C       -121.7380   24.1920  127.1560 C.2    99  ARG99       0.2260
     62  O       -120.6150   23.8070  126.8210 O.2    99  ARG99      -0.2867
     63  CB      -123.5370   24.8710  125.5620 C.3    99  ARG99       0.0307
     64  CG      -124.1200   24.5100  124.1900 C.3    99  ARG99       0.0489
     65  CD      -125.4220   23.7390  124.2550 C.3    99  ARG99       0.2205
     66  NE      -126.0430   23.6600  122.9250 N.pl3  99  ARG99      -0.0865
     67  CZ      -126.8430   24.5840  122.3870 C.cat  99  ARG99       0.5346
     68  NH1     -127.1550   25.6980  123.0480 N.pl3  99  ARG99       0.1354
     69  NH2     -127.3420   24.3890  121.1700 N.pl3  99  ARG99       0.1354
     70  N       -131.4410   19.4910  120.4200 N.3   123  ARG123     -0.1245
     71  CA      -130.6420   20.6810  120.0790 C.3   123  ARG123      0.1563
     72  C       -129.2300   20.3660  119.6110 C.2   123  ARG123      0.2260
     73  O       -128.6380   19.3810  120.0420 O.2   123  ARG123     -0.2867
     74  CB      -130.6350   21.6230  121.2780 C.3   123  ARG123      0.0307
     75  CG      -132.0550   22.1780  121.5330 C.3   123  ARG123      0.0489
     76  CD      -132.1220   23.0040  122.8010 C.3   123  ARG123      0.2205
     77  NE      -131.5200   24.3390  122.6490 N.pl3 123  ARG123     -0.0865
     78  CZ      -131.4320   25.1970  123.6590 C.cat 123  ARG123      0.5346
     79  NH1     -131.9020   24.8310  124.8450 N.pl3 123  ARG123      0.1354
     80  NH2     -130.8900   26.4050  123.4930 N.pl3 123  ARG123      0.1354
     81  N       -121.8430   22.8830  117.4140 N.3   127  ARG127     -0.1245
     82  CA      -121.2670   24.2290  117.5070 C.3   127  ARG127      0.1563
     83  C       -120.2500   24.3390  118.6480 C.2   127  ARG127      0.2260
     84  O       -119.3290   25.1590  118.5950 O.2   127  ARG127     -0.2867
     85  CB      -122.3860   25.2720  117.6660 C.3   127  ARG127      0.0307
     86  CG      -123.4690   24.8630  118.6760 C.3   127  ARG127      0.0489
     87  CD      -124.6080   25.8640  118.7320 C.3   127  ARG127      0.2205
     88  NE      -125.2470   26.0650  117.4280 N.pl3 127  ARG127     -0.0865
     89  CZ      -126.0000   27.1210  117.1300 C.cat 127  ARG127      0.5346
     90  NH1     -126.2150   28.0740  118.0420 N.pl3 127  ARG127      0.1354
     91  NH2     -126.5130   27.2500  115.9170 N.pl3 127  ARG127      0.1354
     92  N       -123.8510   34.0600  116.0600 N.3   167  ALA167     -0.1231
     93  CA      -123.8340   34.9250  117.2380 C.3   167  ALA167      0.1694
     94  C       -124.2790   34.2250  118.5240 C.2   167  ALA167      0.2593
     95  O       -125.3060   34.5820  119.1140 O.2   167  ALA167     -0.2718
     96  CB      -124.6940   36.1740  116.9910 C.3   167  ALA167      0.0304
     97  N       -123.4660   33.2680  118.9600 N.am  168  SER168     -0.1938
     98  CA      -123.7400   32.4670  120.1470 C.3   168  SER168      0.2055
     99  C       -122.8150   32.7310  121.3320 C.2   168  SER168      0.2643
    100  O       -121.6010   32.5120  121.2510 O.2   168  SER168     -0.2714
    101  CB      -123.6620   30.9720  119.7910 C.3   168  SER168      0.2130
    102  OG      -123.7580   30.1830  120.9720 O.3   168  SER168     -0.2179
    103  N       -123.3990   33.2050  122.4310 N.am  169  ALA169     -0.1963
    104  CA      -122.6380   33.4590  123.6450 C.3   169  ALA169      0.1728
    105  C       -122.2660   32.1210  124.2560 C.2   169  ALA169      0.2616
    106  O       -121.2280   32.0060  124.9200 O.2   169  ALA169     -0.2715
    107  CB      -123.4630   34.2750  124.6600 C.3   169  ALA169      0.0334
    108  N       -123.1050   31.1070  124.0440 N.am  170  GLN170     -0.1977
    109  CA      -122.7910   29.7930  124.6150 C.3   170  GLN170      0.1601
    110  C       -121.5550   29.1660  123.9870 C.2   170  GLN170      0.2287
    111  O       -120.7500   28.5410  124.6950 O.2   170  GLN170     -0.2864
    112  CB      -123.9670   28.8370  124.4710 C.3   170  GLN170      0.0394
    113  CG      -125.1570   29.1690  125.3460 C.3   170  GLN170      0.0908
    114  CD      -126.2470   28.1210  125.2170 C.2   170  GLN170      0.2608
    115  OE1     -125.9800   26.9200  125.3110 O.2   170  GLN170     -0.2717
    116  NE2     -127.4730   28.5640  125.0050 N.am  170  GLN170     -0.0878
    117  N       -123.9770   38.3360  124.6090 N.3   195  ARG195     -0.1245
    118  CA      -123.9000   38.6010  126.0460 C.3   195  ARG195      0.1563
    119  C       -122.5250   38.1980  126.5700 C.2   195  ARG195      0.2260
    120  O       -121.9990   37.1300  126.2550 O.2   195  ARG195     -0.2867
    121  CB      -125.0430   37.9220  126.8130 C.3   195  ARG195      0.0307
    122  CG      -125.0600   36.4130  126.8000 C.3   195  ARG195      0.0489
    123  CD      -126.3800   35.9180  127.3960 C.3   195  ARG195      0.2205
    124  NE      -127.4880   36.1670  126.4710 N.pl3 195  ARG195     -0.0865
    125  CZ      -128.7680   35.9180  126.7490 C.cat 195  ARG195      0.5346
    126  NH1     -129.1200   35.4120  127.9410 N.pl3 195  ARG195      0.1354
    127  NH2     -129.6980   36.1730  125.8350 N.pl3 195  ARG195      0.1354
    128  N       -132.2520   37.9910  121.4310 N.3   320  ILE320     -0.1231
    129  CA      -132.6220   36.7240  120.8070 C.3   320  ILE320      0.1692
    130  C       -133.7280   35.9480  121.5320 C.2   320  ILE320      0.2592
    131  O       -134.6320   35.3990  120.8870 O.2   320  ILE320     -0.2718
    132  CB      -131.3360   35.8270  120.5900 C.3   320  ILE320      0.0266
    133  CG1     -131.6610   34.6670  119.6370 C.3   320  ILE320      0.0019
    134  CG2     -130.7900   35.3360  121.9330 C.3   320  ILE320      0.0020
    135  CD1     -132.0040   35.1530  118.2080 C.3   320  ILE320      0.0001
    136  N       -133.7040   35.9450  122.8650 N.am  321  ASP321     -0.1974
    137  CA      -134.7130   35.2250  123.6340 C.3   321  ASP321      0.1709
    138  C       -136.0340   35.9970  123.8220 C.2   321  ASP321      0.2293
    139  O       -137.0220   35.4460  124.3170 O.2   321  ASP321     -0.2864
    140  CB      -134.1350   34.8410  125.0020 C.3   321  ASP321      0.1436
    141  CG      -132.8470   34.0330  124.8730 C.2   321  ASP321      0.3671
    142  OD1     -132.8030   33.1290  124.0090 O.co2 321  ASP321     -0.2456
    143  OD2     -131.8830   34.2980  125.6230 O.co2 321  ASP321     -0.2456
    144  N       -131.2970   31.5780  114.3210 N.3   344  GLU344     -0.1245
    145  CA      -130.9660   30.9930  115.6050 C.3   344  GLU344      0.1567
    146  C       -132.1570   30.5830  116.4570 C.2   344  GLU344      0.2260
    147  O       -132.0160   29.7400  117.3280 O.2   344  GLU344     -0.2867
    148  CB      -130.0550   31.9220  116.3910 C.3   344  GLU344      0.0388
    149  CG      -128.6200   31.8510  115.8970 C.3   344  GLU344      0.1160
    150  CD      -127.9670   30.5350  116.2740 C.2   344  GLU344      0.3649
    151  OE1     -127.8190   30.2800  117.4840 O.co2 344  GLU344     -0.2457
    152  OE2     -127.6170   29.7540  115.3740 O.co2 344  GLU344     -0.2457
    153  N       -133.4980   26.6160  119.5180 N.3   348  LYS348     -0.1231
    154  CA      -133.6140   26.8870  120.9510 C.3   348  LYS348      0.1693
    155  C       -134.3760   25.7580  121.6640 C.2   348  LYS348      0.2591
    156  O       -134.4820   24.6450  121.1370 O.2   348  LYS348     -0.2718
    157  CB      -134.3130   28.2390  121.1620 C.3   348  LYS348      0.0285
    158  CG      -133.5170   29.4170  120.5740 C.3   348  LYS348      0.0035
    159  CD      -132.1720   29.6240  121.2720 C.3   348  LYS348      0.0206
    160  CE      -131.3720   30.7480  120.6060 C.3   348  LYS348      0.1093
    161  NZ      -130.1190   31.0530  121.3600 N.3   348  LYS348     -0.1314
    162  N       -134.9100   26.0310  122.8540 N.am  349  GLU349     -0.1979
    163  CA      -135.6480   24.9980  123.5890 C.3   349  GLU349      0.1602
    164  C       -136.6900   24.3380  122.6750 C.2   349  GLU349      0.2287
    165  O       -137.0220   23.1630  122.8220 O.2   349  GLU349     -0.2864
    166  CB      -136.2900   25.6190  124.8280 C.3   349  GLU349      0.0415
    167  CG      -135.2640   25.8490  125.9240 C.3   349  GLU349      0.1163
    168  CD      -135.6970   26.8820  126.9300 C.2   349  GLU349      0.3649
    169  OE1     -136.9230   27.0220  127.1760 O.co2 349  GLU349     -0.2457
    170  OE2     -134.8040   27.5460  127.4860 O.co2 349  GLU349     -0.2457
    171  N       -138.3170   28.2380  118.0250 N.3   352  ARG352     -0.1245
    172  CA      -139.1640   29.3630  118.4270 C.3   352  ARG352      0.1563
    173  C       -139.8740   30.1350  117.3330 C.2   352  ARG352      0.2260
    174  O       -140.9460   30.7120  117.5740 O.2   352  ARG352     -0.2867
    175  CB      -138.3670   30.3280  119.3020 C.3   352  ARG352      0.0307
    176  CG      -138.0770   29.7130  120.6710 C.3   352  ARG352      0.0489
    177  CD      -137.1980   30.5710  121.5740 C.3   352  ARG352      0.2205
    178  NE      -137.1830   29.9550  122.9040 N.pl3 352  ARG352     -0.0865
    179  CZ      -136.3060   30.2260  123.8610 C.cat 352  ARG352      0.5346
    180  NH1     -135.3400   31.1280  123.6630 N.pl3 352  ARG352      0.1354
    181  NH2     -136.3830   29.5710  125.0060 N.pl3 352  ARG352      0.1354
    182  N       -140.4860   26.9540  127.7410 N.3   399  HIS399     -0.1226
    183  CA      -141.1130   27.8550  128.6980 C.3   399  HIS399      0.1752
    184  C       -141.3040   29.3010  128.2110 C.2   399  HIS399      0.2595
    185  O       -142.1790   30.0070  128.7190 O.2   399  HIS399     -0.2718
    186  CB      -140.3290   27.8270  130.0110 C.3   399  HIS399      0.0759
    187  CG      -139.0300   28.5590  129.9580 C.ar  399  HIS399      0.0818
    188  ND1     -138.0850   28.3360  128.9810 N.ar  399  HIS399     -0.2268
    189  CD2     -138.5290   29.5320  130.7520 C.ar  399  HIS399      0.1154
    190  CE1     -137.0570   29.1450  129.1720 C.ar  399  HIS399      0.1986
    191  NE2     -137.3040   29.8790  130.2410 N.ar  399  HIS399     -0.2212
    192  N       -140.5070   29.7670  127.2500 N.am  400  ARG400     -0.1980
    193  CA      -140.7180   31.1250  126.7710 C.3   400  ARG400      0.1597
    194  C       -141.9360   31.1880  125.8630 C.2   400  ARG400      0.2287
    195  O       -142.5480   32.2310  125.7440 O.2   400  ARG400     -0.2864
    196  CB      -139.4800   31.6720  126.0440 C.3   400  ARG400      0.0334
    197  CG      -138.2720   31.8630  126.9990 C.3   400  ARG400      0.0492
    198  CD      -137.1950   32.8660  126.4950 C.3   400  ARG400      0.2205
    199  NE      -136.0390   32.7120  127.3630 N.pl3 400  ARG400     -0.0865
    200  CZ      -135.9610   33.1930  128.6030 C.cat 400  ARG400      0.5346
    201  NH1     -136.9530   33.9160  129.1060 N.pl3 400  ARG400      0.1354
    202  NH2     -134.9590   32.8170  129.3940 N.pl3 400  ARG400      0.1354
@<TRIPOS>BOND
     1   144   145    1
     2   152   150   ar
     3   145   148    1
     4   145   146    1
     5   149   150    1
     6   149   148    1
     7    91    89    1
     8    92    93    1
     9   150   151   ar
    10   146   147    2
    11    96    93    1
    12    89    88    2
    13    89    90    1
    14    93    94    1
    15   173   174    2
    16   173   172    1
    17    81    82    1
    18    88    87    1
    19    82    85    1
    20    82    83    1
    21    85    86    1
    22   171   172    1
    23   135   133    1
    24   172   175    1
    25    94    97   am
    26    94    95    2
    27    84    83    2
    28    86    87    1
    29    97    98    1
    30   175   176    1
    31   153   154    1
    32    72    73    2
    33    72    71    1
    34   133   132    1
    35   101    98    1
    36   101   102    1
    37    71    70    1
    38    71    74    1
    39    98    99    1
    40   158   157    1
    41   158   159    1
    42   132   129    1
    43   132   134    1
    44   160   159    1
    45   160   161    1
    46   176   177    1
    47   129   128    1
    48   129   130    1
    49   131   130    2
    50   154   157    1
    51   154   155    1
    52   156   155    2
    53    69    67    1
    54   100    99    2
    55    74    75    1
    56    99   103   am
    57   130   136   am
    58    75    76    1
    59   177   178    1
    60   155   162   am
    61    67    66    2
    62    67    68    1
    63   103   104    1
    64    77    76    1
    65    77    78    2
    66   164   165    2
    67   164   163    1
    68   162   163    1
    69   136   137    1
    70   178   179    2
    71    66    65    1
    72    80    78    1
    73   163   166    1
    74   137   138    1
    75   137   140    1
    76   104   105    1
    77   104   107    1
    78    78    79    1
    79   180   179    1
    80   138   139    2
    81   179   181    1
    82   110   109    1
    83   110   111    2
    84   142   141   ar
    85   108   105   am
    86   108   109    1
    87    64    65    1
    88    64    63    1
    89   105   106    2
    90   112   109    1
    91   112   113    1
    92   117   118    1
    93   166   167    1
    94   141   140    1
    95   141   143   ar
    96   116   114   am
    97   114   115    2
    98   114   113    1
    99    63    60    1
   100   195   194    2
   101   127   125    1
   102   194   193    1
   103   167   168    1
   104   196   193    1
   105   196   197    1
   106   118   119    1
   107   118   121    1
   108   120   119    2
   109    60    61    1
   110    60    59    1
   111   124   125    2
   112   124   123    1
   113   198   197    1
   114   198   199    1
   115   125   126    1
   116   193   192    1
   117   122   121    1
   118   122   123    1
   119    62    61    2
   120   168   169   ar
   121   168   170   ar
   122    49    50    1
   123    49    48    1
   124   192   184   am
   125    51    50    2
   126   199   200    2
   127    50    52   am
   128   182   183    1
   129    48    45   am
   130    42    40   am
   131    52    53    1
   132   184   183    1
   133   184   185    2
   134    38    37    2
   135   200   201    1
   136   200   202    1
   137   183   186    1
   138    57    56    1
   139    53    56    1
   140    53    54    1
   141    41    40    2
   142    40    39    1
   143    26    24    1
   144   188   190   ar
   145   188   187   ar
   146    45    46    2
   147    45    44    1
   148   190   191   ar
   149    37    36    1
   150    37    43   am
   151    55    54    2
   152    56    58    1
   153    36    39    1
   154    36    35    1
   155   187   186    1
   156   187   189   ar
   157    44    43    1
   158    44    47    1
   159   191   189   ar
   160    15    14    1
   161    24    25    1
   162    24    23    2
   163     9     8    1
   164    23    22    1
   165    14    11    1
   166     8     7    1
   167    34    32   ar
   168    22    21    1
   169    11    10    1
   170    11    12    1
   171    32    33   ar
   172    32    31    1
   173     7     6    1
   174    10     3   am
   175    21    20    1
   176     6     5    1
   177    12    13    2
   178     5     2    1
   179    31    28    1
   180     3     4    2
   181     3     2    1
   182     2     1    1
   183    20    17    1
   184    28    29    1
   185    28    27    1
   186    16    17    1
   187    30    29    2
   188    17    18    1
   189    18    19    2
