@<TRIPOS>MOLECULE
tmp/2pqfC01.pdb
 105 103 0 0 0
SMALL
GASTEIGER

@<TRIPOS>ATOM
      1  N         78.4410   60.7860   23.7790 N.3    68  HIS68      -0.1241
      2  CA        77.4080   61.8220   23.8190 C.3    68  HIS68       0.1621
      3  C         77.6280   62.8310   22.6770 C.2    68  HIS68       0.2264
      4  O         78.5200   63.6540   22.7320 O.2    68  HIS68      -0.2867
      5  CB        77.4540   62.5680   25.1530 C.3    68  HIS68       0.0745
      6  CG        76.3910   63.5990   25.2920 C.ar   68  HIS68       0.0817
      7  ND1       75.2000   63.3380   25.9180 N.ar   68  HIS68      -0.2268
      8  CD2       76.3350   64.8920   24.8880 C.ar   68  HIS68       0.1154
      9  CE1       74.4500   64.4300   25.8760 C.ar   68  HIS68       0.1986
     10  NE2       75.1180   65.3830   25.2590 N.ar   68  HIS68      -0.2212
     11  N         76.6410   66.1540   20.5000 N.3    70  THR70      -0.1218
     12  CA        76.0260   67.4530   20.7190 C.3    70  THR70       0.1862
     13  C         76.5200   68.3930   19.6020 C.2    70  THR70       0.2287
     14  O         77.4060   68.0040   18.8270 O.2    70  THR70      -0.2866
     15  CB        76.4250   67.9480   22.1420 C.3    70  THR70       0.1770
     16  OG1       75.7220   69.1530   22.4770 O.3    70  THR70      -0.2211
     17  CG2       77.8660   68.1480   22.2230 C.3    70  THR70       0.0375
     18  N         78.1510   73.9200   21.9180 N.3    74  PHE74      -0.1241
     19  CA        78.0570   73.5470   23.3310 C.3    74  PHE74       0.1605
     20  C         79.3380   73.0100   23.9470 C.2    74  PHE74       0.2264
     21  O         79.3450   72.7190   25.1350 O.2    74  PHE74      -0.2867
     22  CB        77.0160   72.4470   23.4920 C.3    74  PHE74       0.0534
     23  CG        75.6090   72.8770   23.2110 C.ar   74  PHE74      -0.0203
     24  CD1       74.8070   72.1400   22.3600 C.ar   74  PHE74      -0.0042
     25  CD2       75.0580   73.9720   23.8480 C.ar   74  PHE74      -0.0042
     26  CE1       73.5170   72.5050   22.1380 C.ar   74  PHE74      -0.0003
     27  CE2       73.7580   74.3480   23.6020 C.ar   74  PHE74      -0.0003
     28  CZ        72.9870   73.6070   22.7550 C.ar   74  PHE74      -0.0000
     29  N         81.1200   75.1250   26.8400 N.3    77  ALA77      -0.1231
     30  CA        80.1620   75.1680   27.9350 C.3    77  ALA77       0.1694
     31  C         80.1940   73.8620   28.7240 C.2    77  ALA77       0.2591
     32  O         80.2850   73.8820   29.9440 O.2    77  ALA77      -0.2718
     33  CB        78.7470   75.4500   27.4040 C.3    77  ALA77       0.0304
     34  N         80.1650   72.7300   28.0260 N.am   78  ILE78      -0.1980
     35  CA        80.2100   71.4210   28.6790 C.3    78  ILE78       0.1595
     36  C         81.5500   71.1590   29.3620 C.2    78  ILE78       0.2287
     37  O         81.6110   70.6620   30.4890 O.2    78  ILE78      -0.2864
     38  CB        79.9530   70.2730   27.6960 C.3    78  ILE78       0.0276
     39  CG1       78.5000   70.3150   27.2120 C.3    78  ILE78       0.0022
     40  CG2       80.3000   68.9390   28.3570 C.3    78  ILE78       0.0022
     41  CD1       78.2120   69.3120   26.0440 C.3    78  ILE78       0.0001
     42  N         79.9580   70.9490   32.6770 N.3    82  ASN82      -0.1225
     43  CA        79.3390   69.6680   32.4420 C.3    82  ASN82       0.1785
     44  C         78.0770   69.7600   31.5540 C.2    82  ASN82       0.2597
     45  O         77.5920   70.8360   31.2100 O.2    82  ASN82      -0.2718
     46  CB        79.0290   68.9500   33.7860 C.3    82  ASN82       0.1169
     47  CG        79.3530   67.5000   33.7380 C.2    82  ASN82       0.2627
     48  OD1       79.5380   66.9700   32.6460 O.2    82  ASN82      -0.2716
     49  ND2       79.4900   66.8370   34.9150 N.am   82  ASN82      -0.0877
     50  N         77.5650   68.5830   31.2140 N.am   83  PHE83      -0.1962
     51  CA        76.3150   68.4070   30.4800 C.3    83  PHE83       0.1771
     52  C         75.1740   68.8970   31.3390 C.2    83  PHE83       0.2620
     53  O         75.2130   68.8080   32.5770 O.2    83  PHE83      -0.2715
     54  CB        76.0890   66.9290   30.1310 C.3    83  PHE83       0.0574
     55  CG        77.2390   66.3030   29.4280 C.ar   83  PHE83      -0.0200
     56  CD1       77.3720   66.4100   28.0620 C.ar   83  PHE83      -0.0042
     57  CD2       78.2360   65.6500   30.1360 C.ar   83  PHE83      -0.0042
     58  CE1       78.4640   65.8540   27.4280 C.ar   83  PHE83      -0.0003
     59  CE2       79.2970   65.0800   29.5100 C.ar   83  PHE83      -0.0003
     60  CZ        79.4000   65.1780   28.1390 C.ar   83  PHE83      -0.0000
     61  N         74.1580   69.4340   30.6680 N.am   84  ASP84      -0.1957
     62  CA        72.9770   69.9300   31.3220 C.3    84  ASP84       0.1840
     63  C         71.7690   69.6760   30.4260 C.2    84  ASP84       0.2622
     64  O         71.5630   70.3800   29.4560 O.2    84  ASP84      -0.2715
     65  CB        73.1410   71.4080   31.5920 C.3    84  ASP84       0.1450
     66  CG        71.9580   71.9920   32.2970 C.2    84  ASP84       0.3671
     67  OD1       71.0530   71.2360   32.6730 O.co2  84  ASP84      -0.2456
     68  OD2       71.9230   73.2160   32.4580 O.co2  84  ASP84      -0.2456
     69  N         70.9540   68.6950   30.7840 N.am   85  TRP85      -0.1974
     70  CA        69.8170   68.3010   29.9690 C.3    85  TRP85       0.1640
     71  C         68.7300   69.3660   29.8800 C.2    85  TRP85       0.2290
     72  O         67.8130   69.2410   29.0590 O.2    85  TRP85      -0.2864
     73  CB        69.1780   67.0330   30.5240 C.3    85  TRP85       0.0576
     74  CG        68.5860   67.2300   31.8960 C.ar   85  TRP85       0.0006
     75  CD1       69.2350   67.0920   33.0890 C.ar   85  TRP85       0.0946
     76  CD2       67.2390   67.6050   32.2120 C.ar   85  TRP85       0.0152
     77  NE1       68.3840   67.3700   34.1240 N.ar   85  TRP85      -0.2442
     78  CE2       67.1540   67.6880   33.6190 C.ar   85  TRP85       0.0810
     79  CE3       66.0930   67.8850   31.4390 C.ar   85  TRP85       0.0012
     80  CZ2       65.9740   68.0410   34.2780 C.ar   85  TRP85       0.0191
     81  CZ3       64.9350   68.2350   32.0800 C.ar   85  TRP85       0.0001
     82  CH2       64.8750   68.3110   33.4980 C.ar   85  TRP85       0.0015
     83  N         69.2220   72.4590   28.9810 N.3    87  VAL87      -0.1231
     84  CA        69.4770   73.4120   27.9190 C.3    87  VAL87       0.1692
     85  C         68.4000   73.2720   26.8320 C.2    87  VAL87       0.2592
     86  O         67.7170   74.2370   26.5450 O.2    87  VAL87      -0.2718
     87  CB        70.9130   73.2990   27.3790 C.3    87  VAL87       0.0266
     88  CG1       71.0730   74.0940   26.0770 C.3    87  VAL87       0.0020
     89  CG2       71.8980   73.8050   28.4430 C.3    87  VAL87       0.0020
     90  N         68.1990   72.0770   26.2780 N.am   88  CYS88      -0.1956
     91  CA        67.0460   71.8330   25.3850 C.3    88  CYS88       0.1843
     92  C         65.8920   71.0600   26.0070 C.2    88  CYS88       0.2626
     93  O         64.8490   70.9210   25.3650 O.2    88  CYS88      -0.2714
     94  CB        67.4680   71.0620   24.1270 C.3    88  CYS88       0.0997
     95  SG        68.7870   71.8160   23.1790 S.3    88  CYS88      -0.0797
     96  N         66.0700   70.5250   27.2220 N.am   89  GLY89      -0.1954
     97  CA        65.0420   69.6610   27.8370 C.3    89  GLY89       0.1869
     98  C         65.0370   68.3130   27.1290 C.2    89  GLY89       0.2309
     99  O         65.8770   68.0870   26.2560 O.2    89  GLY89      -0.2863
    100  N         70.5390   63.5430   31.3710 N.3    99  SER99      -0.1217
    101  CA        71.4640   63.5220   30.2440 C.3    99  SER99       0.1889
    102  C         71.6370   62.0830   29.7530 C.2    99  SER99       0.2288
    103  O         71.6370   61.1600   30.5560 O.2    99  SER99      -0.2866
    104  CB        72.8080   64.1050   30.6470 C.3    99  SER99       0.2089
    105  OG        72.6960   65.4470   31.0730 O.3    99  SER99      -0.2183
@<TRIPOS>BOND
     1    14    13    2
     2    13    12    1
     3    11    12    1
     4    12    15    1
     5    18    19    1
     6    26    24   ar
     7    26    28   ar
     8    15    17    1
     9    15    16    1
    10    24    23   ar
    11     3     4    2
    12     3     2    1
    13    28    27   ar
    14    95    94    1
    15    23    22    1
    16    23    25   ar
    17    19    22    1
    18    19    20    1
    19    27    25   ar
    20     1     2    1
    21     2     5    1
    22    20    21    2
    23    94    91    1
    24     8    10   ar
    25     8     6   ar
    26     5     6    1
    27    10     9   ar
    28     6     7   ar
    29    93    92    2
    30    91    92    1
    31    91    90    1
    32     9     7   ar
    33    92    96   am
    34    41    39    1
    35    88    87    1
    36    99    98    2
    37    90    85   am
    38    86    85    2
    39    85    84    1
    40    29    30    1
    41    98    97    1
    42    39    38    1
    43    96    97    1
    44    87    84    1
    45    87    89    1
    46    33    30    1
    47    58    56   ar
    48    58    60   ar
    49    38    40    1
    50    38    35    1
    51    84    83    1
    52    30    31    1
    53    34    35    1
    54    34    31   am
    55    56    55   ar
    56    60    59   ar
    57    35    36    1
    58    31    32    2
    59    72    71    2
    60    36    37    2
    61    55    54    1
    62    55    57   ar
    63    64    63    2
    64    59    57   ar
    65   102   101    1
    66   102   103    2
    67    71    70    1
    68    70    73    1
    69    70    69    1
    70    54    51    1
    71   101   104    1
    72   101   100    1
    73    63    69   am
    74    63    62    1
    75    51    50    1
    76    51    52    1
    77    73    74    1
    78   104   105    1
    79    61    62    1
    80    61    52   am
    81    45    44    2
    82    50    44   am
    83    62    65    1
    84    52    53    2
    85    79    81   ar
    86    79    76   ar
    87    44    43    1
    88    65    66    1
    89    74    76   ar
    90    74    75   ar
    91    81    82   ar
    92    76    78   ar
    93    66    68   ar
    94    66    67   ar
    95    43    42    1
    96    43    46    1
    97    48    47    2
    98    75    77   ar
    99    82    80   ar
   100    78    77   ar
   101    78    80   ar
   102    47    46    1
   103    47    49   am
