@<TRIPOS>MOLECULE
tmp/2pqjA00.pdb
 107 103 0 0 0
SMALL
GASTEIGER

@<TRIPOS>ATOM
      1  N        -40.7280   30.7570  -21.7780 N.3    73  LEU73      -0.1231
      2  CA       -40.7960   31.6380  -20.6290 C.3    73  LEU73       0.1693
      3  C        -39.4230   32.0770  -20.1560 C.2    73  LEU73       0.2592
      4  O        -39.1260   32.0610  -18.9780 O.2    73  LEU73      -0.2718
      5  CB       -41.5870   30.9370  -19.5210 C.3    73  LEU73       0.0284
      6  CG       -42.9620   30.5010  -20.0460 C.3    73  LEU73       0.0019
      7  CD1      -43.9060   30.0900  -18.9310 C.3    73  LEU73       0.0001
      8  CD2      -43.5740   31.6880  -20.7710 C.3    73  LEU73       0.0001
      9  N        -38.6000   32.4840  -21.1160 N.am   74  TYR74      -0.1962
     10  CA       -37.2350   32.9400  -20.8730 C.3    74  TYR74       0.1771
     11  C        -37.1360   34.4730  -20.9520 C.2    74  TYR74       0.2619
     12  O        -37.7480   35.1000  -21.8210 O.2    74  TYR74      -0.2715
     13  CB       -36.3260   32.3220  -21.9300 C.3    74  TYR74       0.0574
     14  CG       -34.8370   32.5020  -21.7280 C.ar   74  TYR74      -0.0198
     15  CD1      -34.1220   31.6570  -20.8790 C.ar   74  TYR74      -0.0009
     16  CD2      -34.1280   33.4640  -22.4460 C.ar   74  TYR74      -0.0009
     17  CE1      -32.7360   31.7530  -20.7580 C.ar   74  TYR74       0.0417
     18  CE2      -32.7400   33.5720  -22.3370 C.ar   74  TYR74       0.0417
     19  CZ       -32.0460   32.7080  -21.4910 C.ar   74  TYR74       0.1957
     20  OH       -30.6620   32.7710  -21.4020 O.3    74  TYR74      -0.2866
     21  N        -36.3820   35.0770  -20.0380 N.am   75  LEU75      -0.1977
     22  CA       -36.1810   36.5230  -20.0470 C.3    75  LEU75       0.1596
     23  C        -35.0610   36.8250  -21.0420 C.2    75  LEU75       0.2287
     24  O        -33.9100   36.4240  -20.8310 O.2    75  LEU75      -0.2864
     25  CB       -35.7680   37.0270  -18.6650 C.3    75  LEU75       0.0297
     26  CG       -35.2580   38.4770  -18.6110 C.3    75  LEU75       0.0022
     27  CD1      -36.3830   39.4680  -18.9220 C.3    75  LEU75       0.0001
     28  CD2      -34.6800   38.7500  -17.2300 C.3    75  LEU75       0.0001
     29  N        -29.5440   40.1440  -23.1770 N.3    88  PHE88      -0.1241
     30  CA       -28.5400   39.2070  -22.6980 C.3    88  PHE88       0.1605
     31  C        -27.6920   38.7580  -23.8770 C.2    88  PHE88       0.2264
     32  O        -28.2220   38.2730  -24.8810 O.2    88  PHE88      -0.2867
     33  CB       -29.2040   37.9860  -22.0810 C.3    88  PHE88       0.0534
     34  CG       -29.6080   38.1650  -20.6560 C.ar   88  PHE88      -0.0203
     35  CD1      -30.9490   38.0690  -20.2820 C.ar   88  PHE88      -0.0042
     36  CD2      -28.6480   38.3680  -19.6790 C.ar   88  PHE88      -0.0042
     37  CE1      -31.3310   38.1590  -18.9530 C.ar   88  PHE88      -0.0003
     38  CE2      -29.0150   38.4600  -18.3390 C.ar   88  PHE88      -0.0003
     39  CZ       -30.3670   38.3550  -17.9730 C.ar   88  PHE88      -0.0000
     40  N        -28.1550   35.1380  -20.1870 N.3   108  GLY108     -0.1210
     41  CA       -29.0900   35.1360  -19.0840 C.3   108  GLY108      0.1956
     42  C        -29.4210   33.7840  -18.5000 C.2   108  GLY108      0.2612
     43  O        -30.5830   33.4840  -18.2650 O.2   108  GLY108     -0.2717
     44  N        -28.4100   32.9590  -18.2720 N.am  109  ARG109     -0.1965
     45  CA       -28.6310   31.6460  -17.6810 C.3   109  ARG109      0.1729
     46  C        -28.1230   31.7360  -16.2460 C.2   109  ARG109      0.2616
     47  O        -27.4290   32.6890  -15.9050 O.2   109  ARG109     -0.2715
     48  CB       -27.8730   30.5760  -18.4680 C.3   109  ARG109      0.0348
     49  CG       -28.4640   30.2620  -19.8350 C.3   109  ARG109      0.0492
     50  CD       -27.3680   29.8140  -20.7780 C.3   109  ARG109      0.2205
     51  NE       -26.1300   29.5560  -20.0470 N.pl3 109  ARG109     -0.0865
     52  CZ       -24.9170   29.5520  -20.5920 C.cat 109  ARG109      0.5346
     53  NH1      -23.8530   29.3070  -19.8360 N.pl3 109  ARG109      0.1354
     54  NH2      -24.7650   29.8000  -21.8870 N.pl3 109  ARG109      0.1354
     55  N        -28.4800   30.7730  -15.4000 N.am  110  TYR110     -0.1974
     56  CA       -28.0330   30.8180  -14.0120 C.3   110  TYR110      0.1639
     57  C        -26.5300   30.7180  -13.8900 C.2   110  TYR110      0.2290
     58  O        -25.9260   31.4000  -13.0470 O.2   110  TYR110     -0.2864
     59  CB       -28.7000   29.7200  -13.1820 C.3   110  TYR110      0.0560
     60  CG       -30.1540   30.0040  -12.9440 C.ar  110  TYR110     -0.0198
     61  CD1      -30.5610   31.2510  -12.4950 C.ar  110  TYR110     -0.0009
     62  CD2      -31.1240   29.0690  -13.2460 C.ar  110  TYR110     -0.0009
     63  CE1      -31.9020   31.5660  -12.3640 C.ar  110  TYR110      0.0417
     64  CE2      -32.4690   29.3730  -13.1210 C.ar  110  TYR110      0.0417
     65  CZ       -32.8490   30.6240  -12.6860 C.ar  110  TYR110      0.1957
     66  OH       -34.1740   30.9560  -12.6350 O.3   110  TYR110     -0.2866
     67  N        -25.2550   34.2180  -14.5290 N.3   113  LEU113     -0.1245
     68  CA       -25.4910   35.2350  -13.5310 C.3   113  LEU113      0.1561
     69  C        -24.8730   34.8860  -12.2000 C.2   113  LEU113      0.2260
     70  O        -24.3110   35.7520  -11.5350 O.2   113  LEU113     -0.2867
     71  CB       -26.9970   35.4750  -13.3870 C.3   113  LEU113      0.0270
     72  CG       -27.7080   35.8080  -14.7120 C.3   113  LEU113      0.0019
     73  CD1      -29.1160   36.2970  -14.4240 C.3   113  LEU113      0.0001
     74  CD2      -26.9480   36.8870  -15.4680 C.3   113  LEU113      0.0001
     75  N        -35.5330   37.0970  -12.6170 N.3   152  VAL152     -0.1245
     76  CA       -35.6050   35.8660  -13.3760 C.3   152  VAL152      0.1561
     77  C        -36.3940   34.8010  -12.5930 C.2   152  VAL152      0.2260
     78  O        -37.3380   34.2240  -13.1170 O.2   152  VAL152     -0.2867
     79  CB       -34.1780   35.3930  -13.7210 C.3   152  VAL152      0.0252
     80  CG1      -34.1420   33.9050  -13.9660 C.3   152  VAL152      0.0019
     81  CG2      -33.6920   36.1670  -14.9400 C.3   152  VAL152      0.0019
     82  N        -39.9220   34.8730  -14.2000 N.3   156  CYS156     -0.1221
     83  CA       -39.9090   33.7250  -15.0710 C.3   156  CYS156      0.1808
     84  C        -40.2230   32.3780  -14.4470 C.2   156  CYS156      0.2601
     85  O        -41.1240   31.6850  -14.9200 O.2   156  CYS156     -0.2717
     86  CB       -38.5870   33.6900  -15.8010 C.3   156  CYS156      0.0970
     87  SG       -38.5430   35.1140  -16.8850 S.3   156  CYS156     -0.0800
     88  N        -39.5090   31.9950  -13.3940 N.am  157  GLU157     -0.1979
     89  CA       -39.7690   30.6920  -12.7720 C.3   157  GLU157      0.1602
     90  C        -41.1210   30.7230  -12.0640 C.2   157  GLU157      0.2287
     91  O        -41.7680   29.6930  -11.8970 O.2   157  GLU157     -0.2864
     92  CB       -38.6540   30.3170  -11.7830 C.3   157  GLU157      0.0415
     93  CG       -37.2240   30.4520  -12.3280 C.3   157  GLU157      0.1163
     94  CD       -36.9680   29.5690  -13.5250 C.2   157  GLU157      0.3649
     95  OE1      -37.8820   28.8560  -13.9630 O.co2 157  GLU157     -0.2457
     96  OE2      -35.8460   29.5770  -14.0350 O.co2 157  GLU157     -0.2457
     97  N        -43.4910   29.6910  -14.6730 N.3   160  ARG160     -0.1245
     98  CA       -43.3170   28.2690  -14.9620 C.3   160  ARG160      0.1563
     99  C        -43.7440   27.3100  -13.8470 C.2   160  ARG160      0.2260
    100  O        -44.4650   26.3560  -14.1120 O.2   160  ARG160     -0.2867
    101  CB       -41.8550   27.9780  -15.2790 C.3   160  ARG160      0.0307
    102  CG       -41.2400   28.8740  -16.3090 C.3   160  ARG160      0.0489
    103  CD       -39.8100   28.4720  -16.4420 C.3   160  ARG160      0.2205
    104  NE       -39.1360   29.1090  -17.5560 N.pl3 160  ARG160     -0.0865
    105  CZ       -37.8670   28.8880  -17.8600 C.cat 160  ARG160      0.5346
    106  NH1      -37.1600   28.0510  -17.1180 N.pl3 160  ARG160      0.1354
    107  NH2      -37.3180   29.4830  -18.9060 N.pl3 160  ARG160      0.1354
@<TRIPOS>BOND
     1    32    31    2
     2    31    30    1
     3    29    30    1
     4    30    33    1
     5    16    18   ar
     6    16    14   ar
     7    18    19   ar
     8    33    34    1
     9    13    14    1
    10    13    10    1
    11    54    52    1
    12    12    11    2
    13     1     2    1
    14    14    15   ar
    15    19    20    1
    16    19    17   ar
    17     9    10    1
    18     9     3   am
    19    23    24    2
    20    23    22    1
    21    11    10    1
    22    11    21   am
    23    15    17   ar
    24    50    51    1
    25    50    49    1
    26     8     6    1
    27    34    35   ar
    28    34    36   ar
    29     2     3    1
    30     2     5    1
    31    52    51    2
    32    52    53    1
    33    35    37   ar
    34    40    41    1
    35     3     4    2
    36    22    21    1
    37    22    25    1
    38     6     5    1
    39     6     7    1
    40    49    48    1
    41    36    38   ar
    42    41    42    1
    43    37    39   ar
    44    27    26    1
    45   107   105    1
    46    25    26    1
    47    26    28    1
    48    42    44   am
    49    42    43    2
    50    48    45    1
    51    38    39   ar
    52    44    45    1
    53   105   104    2
    54   105   106    1
    55    45    46    1
    56   104   103    1
    57    87    86    1
    58   103   102    1
    59   102   101    1
    60    46    47    2
    61    46    55   am
    62    86    83    1
    63    74    72    1
    64    55    56    1
    65   101    98    1
    66    83    84    1
    67    83    82    1
    68    98    97    1
    69    98    99    1
    70    81    79    1
    71    85    84    2
    72    72    73    1
    73    72    71    1
    74    67    68    1
    75    84    88   am
    76   100    99    2
    77    96    94   ar
    78    56    57    1
    79    56    59    1
    80    80    79    1
    81    95    94   ar
    82    57    58    2
    83    79    76    1
    84    68    71    1
    85    68    69    1
    86    94    93    1
    87    88    89    1
    88    76    75    1
    89    76    77    1
    90    62    64   ar
    91    62    60   ar
    92    59    60    1
    93    64    65   ar
    94    78    77    2
    95    60    61   ar
    96    89    90    1
    97    89    92    1
    98    65    66    1
    99    65    63   ar
   100    61    63   ar
   101    93    92    1
   102    69    70    2
   103    90    91    2
