@<TRIPOS>MOLECULE
tmp/2pqlA00.pdb
 128 121 0 0 0
SMALL
GASTEIGER

@<TRIPOS>ATOM
      1  N         17.9070  -17.9720   -1.1470 N.3     3  VAL3       -0.1245
      2  CA        17.1630  -17.5750    0.0480 C.3     3  VAL3        0.1561
      3  C         17.9970  -16.7170    1.0000 C.2     3  VAL3        0.2260
      4  O         17.5050  -15.7280    1.5380 O.2     3  VAL3       -0.2867
      5  CB        16.6350  -18.7980    0.8150 C.3     3  VAL3        0.0252
      6  CG1       15.9870  -18.3690    2.1160 C.3     3  VAL3        0.0019
      7  CG2       15.6630  -19.5900   -0.0500 C.3     3  VAL3        0.0019
      8  N         17.2750  -13.0330    2.4050 N.3     7  GLU7       -0.1245
      9  CA        17.4070  -12.6330    3.8020 C.3     7  GLU7        0.1567
     10  C         18.4060  -11.4840    4.0370 C.2     7  GLU7        0.2260
     11  O         18.1390  -10.5740    4.8230 O.2     7  GLU7       -0.2867
     12  CB        17.7100  -13.8480    4.6850 C.3     7  GLU7        0.0388
     13  CG        16.6780  -14.9630    4.5230 C.3     7  GLU7        0.1160
     14  CD        16.8800  -16.0890    5.5010 C.2     7  GLU7        0.3649
     15  OE1       18.0480  -16.3810    5.8380 O.co2   7  GLU7       -0.2457
     16  OE2       15.8710  -16.6950    5.9250 O.co2   7  GLU7       -0.2457
     17  N          9.5680  -15.6780   10.5840 N.3    21  ILE21      -0.1231
     18  CA         9.5150  -16.0140    9.1560 C.3    21  ILE21       0.1692
     19  C          9.9350  -17.4700    8.8780 C.2    21  ILE21       0.2591
     20  O          9.2470  -18.2160    8.1690 O.2    21  ILE21      -0.2718
     21  CB        10.3900  -15.0520    8.3360 C.3    21  ILE21       0.0266
     22  CG1        9.9770  -13.5990    8.6090 C.3    21  ILE21       0.0019
     23  CG2       10.2720  -15.3620    6.8530 C.3    21  ILE21       0.0020
     24  CD1       10.8630  -12.5620    7.9100 C.3    21  ILE21       0.0001
     25  N         11.0650  -17.8780    9.4500 N.am   22  ARG22      -0.1980
     26  CA        11.6670  -19.1600    9.1070 C.3    22  ARG22       0.1597
     27  C         10.9600  -20.3310    9.8110 C.2    22  ARG22       0.2287
     28  O         11.2770  -21.4970    9.5670 O.2    22  ARG22      -0.2864
     29  CB        13.1750  -19.1420    9.4180 C.3    22  ARG22       0.0334
     30  CG        14.0240  -18.2690    8.4570 C.3    22  ARG22       0.0492
     31  CD        15.5560  -18.4630    8.6730 C.3    22  ARG22       0.2205
     32  NE        15.9410  -19.8450    8.3910 N.pl3  22  ARG22      -0.0865
     33  CZ        16.2160  -20.3180    7.1750 C.cat  22  ARG22       0.5346
     34  NH1       16.1970  -19.5200    6.1210 N.pl3  22  ARG22       0.1354
     35  NH2       16.5300  -21.5920    7.0140 N.pl3  22  ARG22       0.1354
     36  N          7.7950  -20.4910    9.3440 N.3    24  TYR24      -0.1241
     37  CA         6.6100  -20.4650    8.4810 C.3    24  TYR24       0.1605
     38  C          5.4370  -19.6980    9.0840 C.2    24  TYR24       0.2264
     39  O          4.2720  -19.8620    8.6750 O.2    24  TYR24      -0.2867
     40  CB         6.1750  -21.8810    8.0870 C.3    24  TYR24       0.0534
     41  CG         7.1890  -22.6300    7.2420 C.ar   24  TYR24      -0.0201
     42  CD1        7.2100  -22.4870    5.8580 C.ar   24  TYR24      -0.0009
     43  CD2        8.1190  -23.4850    7.8310 C.ar   24  TYR24      -0.0009
     44  CE1        8.1460  -23.1700    5.0700 C.ar   24  TYR24       0.0417
     45  CE2        9.0490  -24.1980    7.0450 C.ar   24  TYR24       0.0417
     46  CZ         9.0580  -24.0200    5.6750 C.ar   24  TYR24       0.1957
     47  OH         9.9720  -24.7030    4.9030 O.3    24  TYR24      -0.2866
     48  N          9.6730  -10.2020    0.0650 N.3    35  HIS35      -0.1226
     49  CA        10.5450  -11.2650    0.5810 C.3    35  HIS35       0.1752
     50  C         10.1220  -12.6450    0.0490 C.2    35  HIS35       0.2595
     51  O         10.9190  -13.3680   -0.5470 O.2    35  HIS35      -0.2718
     52  CB        10.5610  -11.2570    2.1170 C.3    35  HIS35       0.0759
     53  CG        11.5330  -12.2250    2.7240 C.ar   35  HIS35       0.0818
     54  ND1       12.8730  -12.2420    2.3990 N.ar   35  HIS35      -0.2268
     55  CD2       11.3610  -13.2010    3.6490 C.ar   35  HIS35       0.1154
     56  CE1       13.4840  -13.1800    3.0970 C.ar   35  HIS35       0.1986
     57  NE2       12.5870  -13.7850    3.8550 N.ar   35  HIS35      -0.2212
     58  N          8.8580  -12.9900    0.2510 N.am   36  ILE36      -0.1980
     59  CA         8.3410  -14.2950   -0.1420 C.3    36  ILE36       0.1595
     60  C          8.3460  -14.5180   -1.6510 C.2    36  ILE36       0.2287
     61  O          8.4530  -15.6620   -2.1150 O.2    36  ILE36      -0.2864
     62  CB         6.9260  -14.5370    0.4160 C.3    36  ILE36       0.0276
     63  CG1        6.9530  -14.4620    1.9400 C.3    36  ILE36       0.0022
     64  CG2        6.3850  -15.8820   -0.0570 C.3    36  ILE36       0.0022
     65  CD1        8.0980  -15.2400    2.5640 C.3    36  ILE36       0.0001
     66  N         12.0570  -15.3470   -2.2440 N.3    39  VAL39      -0.1245
     67  CA        12.4100  -16.7100   -1.8390 C.3    39  VAL39       0.1561
     68  C         11.7360  -17.8130   -2.6480 C.2    39  VAL39       0.2260
     69  O         12.3760  -18.7870   -3.0130 O.2    39  VAL39      -0.2867
     70  CB        12.3210  -16.9790   -0.3060 C.3    39  VAL39       0.0252
     71  CG1       12.6730  -15.7550    0.5040 C.3    39  VAL39       0.0019
     72  CG2       10.9930  -17.5970    0.0970 C.3    39  VAL39       0.0019
     73  N          1.9280  -19.0510   -1.2190 N.3    94  TYR94      -0.1241
     74  CA         2.6800  -19.6080   -0.0940 C.3    94  TYR94       0.1605
     75  C          1.7470  -19.7340    1.1100 C.2    94  TYR94       0.2264
     76  O          1.6530  -20.7970    1.7360 O.2    94  TYR94      -0.2867
     77  CB         3.8430  -18.6420    0.1990 C.3    94  TYR94       0.0534
     78  CG         4.6060  -18.7740    1.5070 C.ar   94  TYR94      -0.0201
     79  CD1        5.7040  -19.6300    1.6200 C.ar   94  TYR94      -0.0009
     80  CD2        4.2760  -17.9840    2.6030 C.ar   94  TYR94      -0.0009
     81  CE1        6.4340  -19.7090    2.8090 C.ar   94  TYR94       0.0417
     82  CE2        4.9860  -18.0500    3.7810 C.ar   94  TYR94       0.0417
     83  CZ         6.0570  -18.9180    3.8820 C.ar   94  TYR94       0.1957
     84  OH         6.7470  -18.9750    5.0590 O.3    94  TYR94      -0.2866
     85  N         10.0100  -27.5910    0.9540 N.3   110  PHE110     -0.1227
     86  CA        10.6270  -26.2670    1.0720 C.3   110  PHE110      0.1736
     87  C         11.9880  -26.3210    1.8030 C.2   110  PHE110      0.2595
     88  O         12.9810  -25.8000    1.3030 O.2   110  PHE110     -0.2718
     89  CB         9.6390  -25.3330    1.7820 C.3   110  PHE110      0.0547
     90  CG        10.0470  -23.8770    1.8000 C.ar  110  PHE110     -0.0202
     91  CD1       11.1730  -23.4600    2.5010 C.ar  110  PHE110     -0.0042
     92  CD2        9.2650  -22.9200    1.1620 C.ar  110  PHE110     -0.0042
     93  CE1       11.5290  -22.1140    2.5400 C.ar  110  PHE110     -0.0003
     94  CE2        9.6130  -21.5740    1.1950 C.ar  110  PHE110     -0.0003
     95  CZ        10.7400  -21.1720    1.8920 C.ar  110  PHE110     -0.0000
     96  N         12.0320  -26.9600    2.9720 N.am  111  ASP111     -0.1974
     97  CA        13.2950  -27.1740    3.6900 C.3   111  ASP111      0.1709
     98  C         14.3490  -27.8760    2.8190 C.2   111  ASP111      0.2293
     99  O         15.5030  -27.4460    2.7590 O.2   111  ASP111     -0.2864
    100  CB        13.0740  -28.0250    4.9510 C.3   111  ASP111      0.1436
    101  CG        12.4100  -27.2510    6.0790 C.2   111  ASP111      0.3671
    102  OD1       12.1040  -26.0510    5.8920 O.co2 111  ASP111     -0.2456
    103  OD2       12.2050  -27.8500    7.1520 O.co2 111  ASP111     -0.2456
    104  N         15.6410  -25.7190    0.0530 N.3   114  GLU114     -0.1245
    105  CA        16.4660  -24.6310    0.5340 C.3   114  GLU114      0.1567
    106  C         17.8870  -25.1280    0.6980 C.2   114  GLU114      0.2260
    107  O         18.8380  -24.5040    0.2120 O.2   114  GLU114     -0.2867
    108  CB        15.9430  -24.0770    1.8590 C.3   114  GLU114      0.0388
    109  CG        16.5970  -22.7600    2.2620 C.3   114  GLU114      0.1160
    110  CD        16.3880  -22.4090    3.7290 C.2   114  GLU114      0.3649
    111  OE1       15.6270  -23.1170    4.4260 O.co2 114  GLU114     -0.2457
    112  OE2       16.9910  -21.4160    4.1900 O.co2 114  GLU114     -0.2457
    113  N         18.7110  -29.3510    9.3870 N.3   135  MET135     -0.1245
    114  CA        17.9110  -28.1400    9.3260 C.3   135  MET135      0.1570
    115  C         17.9600  -27.3260   10.6380 C.2   135  MET135      0.2261
    116  O         18.1210  -26.1020   10.6060 O.2   135  MET135     -0.2867
    117  CB        16.4770  -28.4560    8.8780 C.3   135  MET135      0.0387
    118  CG        15.5850  -27.2280    8.6200 C.3   135  MET135      0.0595
    119  SD        15.8770  -26.3500    7.0500 S.3   135  MET135     -0.1393
    120  CE        16.8960  -25.0260    7.6870 C.3   135  MET135      0.0692
    121  N         19.4900  -23.5540   11.0180 N.3   139  ASP139     -0.1239
    122  CA        18.7370  -22.4550   11.6410 C.3   139  ASP139      0.1674
    123  C         19.4590  -21.8720   12.8450 C.2   139  ASP139      0.2266
    124  O         19.4520  -20.6550   13.0520 O.2   139  ASP139     -0.2867
    125  CB        17.3300  -22.9150   12.0600 C.3   139  ASP139      0.1410
    126  CG        16.3440  -22.9590   10.8900 C.2   139  ASP139      0.3668
    127  OD1       16.6260  -22.3870    9.8180 O.co2 139  ASP139     -0.2456
    128  OD2       15.2720  -23.5800   11.0510 O.co2 139  ASP139     -0.2456
@<TRIPOS>BOND
     1    69    68    2
     2    68    67    1
     3    66    67    1
     4    61    60    2
     5    67    70    1
     6    60    59    1
     7    73    74    1
     8     1     2    1
     9    51    50    2
    10    70    72    1
    11    70    71    1
    12    59    58    1
    13    59    62    1
    14    74    77    1
    15    74    75    1
    16    64    62    1
    17     7     5    1
    18     2     5    1
    19     2     3    1
    20    50    58   am
    21    50    49    1
    22   104   105    1
    23    48    49    1
    24    77    78    1
    25   107   106    2
    26    62    63    1
    27   105   106    1
    28   105   108    1
    29    49    52    1
    30     5     6    1
    31    85    86    1
    32     3     4    2
    33    86    89    1
    34    86    87    1
    35    75    76    2
    36    92    94   ar
    37    92    90   ar
    38    94    95   ar
    39    88    87    2
    40    78    79   ar
    41    78    80   ar
    42    79    81   ar
    43    89    90    1
    44    90    91   ar
    45    87    96   am
    46   108   109    1
    47    95    93   ar
    48    63    65    1
    49    52    53    1
    50   109   110    1
    51    54    53   ar
    52    54    56   ar
    53     8     9    1
    54    91    93   ar
    55    80    82   ar
    56    53    55   ar
    57    99    98    2
    58    81    83   ar
    59    98    97    1
    60    96    97    1
    61    56    57   ar
    62    55    57   ar
    63    97   100    1
    64   110   112   ar
    65   110   111   ar
    66    82    83   ar
    67     9    10    1
    68     9    12    1
    69    83    84    1
    70    10    11    2
    71    13    12    1
    72    13    14    1
    73    47    46    1
    74   100   101    1
    75    44    46   ar
    76    44    42   ar
    77    14    15   ar
    78    14    16   ar
    79    46    45   ar
    80    42    41   ar
    81   102   101   ar
    82   101   103   ar
    83    34    33    1
    84    23    21    1
    85    35    33    1
    86    45    43   ar
    87   119   120    1
    88   119   118    1
    89    33    32    2
    90    41    43   ar
    91    41    40    1
    92    24    22    1
    93    40    37    1
    94    20    19    2
    95    21    22    1
    96    21    18    1
    97    32    31    1
    98    30    31    1
    99    30    29    1
   100    37    38    1
   101    37    36    1
   102   118   117    1
   103    39    38    2
   104   117   114    1
   105    19    18    1
   106    19    25   am
   107    26    29    1
   108    26    25    1
   109    26    27    1
   110    18    17    1
   111   114   113    1
   112   114   115    1
   113    28    27    2
   114   127   126   ar
   115   116   115    2
   116   126   128   ar
   117   126   125    1
   118   121   122    1
   119   122   125    1
   120   122   123    1
   121   123   124    2
