@<TRIPOS>MOLECULE
tmp/2pr1A01.pdb
 181 179 0 0 0
SMALL
GASTEIGER

@<TRIPOS>ATOM
      1  N        114.6040   24.5150   15.4310 N.3    21  LYS21      -0.1245
      2  CA       113.4870   25.2420   16.0190 C.3    21  LYS21       0.1561
      3  C        113.6000   26.7340   15.7310 C.2    21  LYS21       0.2260
      4  O        112.6060   27.3740   15.3820 O.2    21  LYS21      -0.2867
      5  CB       113.4370   24.9810   17.5270 C.3    21  LYS21       0.0271
      6  CG       112.1350   25.3780   18.1990 C.3    21  LYS21       0.0035
      7  CD       112.2750   25.4060   19.7290 C.3    21  LYS21       0.0206
      8  CE       110.9480   25.6870   20.4240 C.3    21  LYS21       0.1093
      9  NZ       110.0250   24.5310   20.2830 N.3    21  LYS21      -0.1314
     10  N        122.3820   29.2730   17.6750 N.3    85  LEU85      -0.1231
     11  CA       123.1310   28.1370   18.2030 C.3    85  LEU85       0.1693
     12  C        122.1540   27.0550   18.6350 C.2    85  LEU85       0.2592
     13  O        121.4090   27.2270   19.6120 O.2    85  LEU85      -0.2718
     14  CB       124.0100   28.5340   19.3900 C.3    85  LEU85       0.0284
     15  CG       124.7600   27.3350   19.9800 C.3    85  LEU85       0.0019
     16  CD1      125.8810   26.9010   19.0250 C.3    85  LEU85       0.0001
     17  CD2      125.2980   27.6340   21.3720 C.3    85  LEU85       0.0001
     18  N        122.1410   25.9460   17.9050 N.am   86  GLU86      -0.1966
     19  CA       121.2100   24.8700   18.2240 C.3    86  GLU86       0.1733
     20  C        121.7570   23.5140   17.8110 C.2    86  GLU86       0.2616
     21  O        122.4760   23.3940   16.8060 O.2    86  GLU86      -0.2715
     22  CB       119.8370   25.1390   17.5840 C.3    86  GLU86       0.0429
     23  CG       118.7530   24.1190   17.9040 C.3    86  GLU86       0.1163
     24  CD       117.3620   24.5160   17.3970 C.2    86  GLU86       0.3649
     25  OE1      117.2230   25.5050   16.6430 O.co2  86  GLU86      -0.2457
     26  OE2      116.3910   23.8200   17.7680 O.co2  86  GLU86      -0.2457
     27  N        121.4150   22.5130   18.6200 N.am   87  VAL87      -0.1977
     28  CA       121.7770   21.1160   18.4170 C.3    87  VAL87       0.1596
     29  C        120.4670   20.3310   18.4420 C.2    87  VAL87       0.2287
     30  O        119.6380   20.5250   19.3410 O.2    87  VAL87      -0.2864
     31  CB       122.7010   20.6100   19.5510 C.3    87  VAL87       0.0276
     32  CG1      123.0810   19.1480   19.3360 C.3    87  VAL87       0.0022
     33  CG2      123.9510   21.4700   19.6550 C.3    87  VAL87       0.0022
     34  N        121.3820   14.5230   20.2850 N.3    91  TYR91      -0.1227
     35  CA       122.7820   14.8690   20.0580 C.3    91  TYR91       0.1736
     36  C        123.2860   15.9830   20.9880 C.2    91  TYR91       0.2595
     37  O        124.3980   16.5170   20.8140 O.2    91  TYR91      -0.2718
     38  CB       122.9670   15.3040   18.6170 C.3    91  TYR91       0.0548
     39  CG       122.5290   14.3070   17.5700 C.ar   91  TYR91      -0.0200
     40  CD1      121.2210   14.3060   17.0870 C.ar   91  TYR91      -0.0009
     41  CD2      123.4390   13.4000   17.0180 C.ar   91  TYR91      -0.0009
     42  CE1      120.8260   13.4110   16.0960 C.ar   91  TYR91       0.0417
     43  CE2      123.0530   12.5050   16.0270 C.ar   91  TYR91       0.0417
     44  CZ       121.7480   12.5180   15.5700 C.ar   91  TYR91       0.1957
     45  OH       121.3570   11.6360   14.5900 O.3    91  TYR91      -0.2866
     46  N        122.4500   16.3300   21.9660 N.am   92  GLN92      -0.1965
     47  CA       122.7600   17.3680   22.9470 C.3    92  GLN92       0.1733
     48  C        123.6510   16.7930   24.0490 C.2    92  GLN92       0.2616
     49  O        123.8010   15.5740   24.1620 O.2    92  GLN92      -0.2715
     50  CB       121.4640   17.9390   23.5430 C.3    92  GLN92       0.0408
     51  CG       120.5090   18.5070   22.4930 C.3    92  GLN92       0.0908
     52  CD       119.1660   18.9800   23.0580 C.2    92  GLN92       0.2608
     53  OE1      118.6070   18.3870   23.9870 O.2    92  GLN92      -0.2717
     54  NE2      118.6340   20.0500   22.4710 N.am   92  GLN92      -0.0878
     55  N        124.2500   17.6800   24.8420 N.am   93  ASN93      -0.1958
     56  CA       125.1290   17.3060   25.9590 C.3    93  ASN93       0.1819
     57  C        126.3680   16.5170   25.5450 C.2    93  ASN93       0.2621
     58  O        127.1830   16.1410   26.3900 O.2    93  ASN93      -0.2715
     59  CB       124.3370   16.5840   27.0580 C.3    93  ASN93       0.1195
     60  CG       123.1590   17.4080   27.5490 C.2    93  ASN93       0.2630
     61  OD1      123.2590   18.6360   27.6640 O.2    93  ASN93      -0.2716
     62  ND2      122.0370   16.7480   27.8280 N.am   93  ASN93      -0.0877
     63  N        126.5130   16.3000   24.2370 N.am   94  ARG94      -0.1963
     64  CA       127.6440   15.5630   23.6750 C.3    94  ARG94       0.1729
     65  C        128.7780   16.4870   23.2480 C.2    94  ARG94       0.2617
     66  O        129.7560   16.0350   22.6530 O.2    94  ARG94      -0.2715
     67  CB       127.1960   14.6800   22.5100 C.3    94  ARG94       0.0348
     68  CG       126.3080   13.5460   22.9450 C.3    94  ARG94       0.0492
     69  CD       125.7770   12.7600   21.7710 C.3    94  ARG94       0.2205
     70  NE       125.0010   11.6090   22.2310 N.pl3  94  ARG94      -0.0865
     71  CZ       124.4460   10.6990   21.4340 C.cat  94  ARG94       0.5346
     72  NH1      124.5690   10.7960   20.1140 N.pl3  94  ARG94       0.1354
     73  NH2      123.7680    9.6840   21.9610 N.pl3  94  ARG94       0.1354
     74  N        128.6490   17.7800   23.5360 N.am   95  GLY95      -0.1940
     75  CA       129.7500   18.7050   23.2780 C.3    95  GLY95       0.2014
     76  C        129.7980   19.4090   21.9370 C.2    95  GLY95       0.2639
     77  O        130.7690   20.1130   21.6470 O.2    95  GLY95      -0.2714
     78  N        128.7580   19.2350   21.1220 N.am   96  TYR96      -0.1959
     79  CA       128.6960   19.9050   19.8210 C.3    96  TYR96       0.1771
     80  C        128.5490   21.4110   19.9700 C.2    96  TYR96       0.2620
     81  O        129.1500   22.1740   19.2130 O.2    96  TYR96      -0.2715
     82  CB       127.5750   19.3500   18.9350 C.3    96  TYR96       0.0574
     83  CG       127.7880   17.9220   18.4820 C.ar   96  TYR96      -0.0198
     84  CD1      128.9510   17.5490   17.8240 C.ar   96  TYR96      -0.0009
     85  CD2      126.8150   16.9500   18.6930 C.ar   96  TYR96      -0.0009
     86  CE1      129.1530   16.2460   17.4080 C.ar   96  TYR96       0.0417
     87  CE2      127.0060   15.6350   18.2700 C.ar   96  TYR96       0.0417
     88  CZ       128.1810   15.2950   17.6240 C.ar   96  TYR96       0.1957
     89  OH       128.3960   14.0000   17.1970 O.3    96  TYR96      -0.2866
     90  N        127.7550   21.8380   20.9460 N.am   97  GLY97      -0.1940
     91  CA       127.5390   23.2630   21.1910 C.3    97  GLY97       0.2014
     92  C        128.8160   23.9070   21.6620 C.2    97  GLY97       0.2638
     93  O        129.2460   24.9150   21.0900 O.2    97  GLY97      -0.2714
     94  N        129.4330   23.3090   22.6850 N.am   98  ARG98      -0.1977
     95  CA       130.7100   23.7870   23.2070 C.3    98  ARG98       0.1597
     96  C        131.7580   23.8920   22.0910 C.2    98  ARG98       0.2287
     97  O        132.5340   24.8520   22.0480 O.2    98  ARG98      -0.2864
     98  CB       131.2000   22.8950   24.3520 C.3    98  ARG98       0.0334
     99  CG       132.7070   22.9580   24.6120 C.3    98  ARG98       0.0492
    100  CD       133.0630   22.2500   25.8830 C.3    98  ARG98       0.2205
    101  NE       132.9530   23.1280   27.0430 N.pl3  98  ARG98      -0.0865
    102  CZ       132.5340   22.7340   28.2440 C.cat  98  ARG98       0.5346
    103  NH1      132.1340   21.4790   28.4430 N.pl3  98  ARG98       0.1354
    104  NH2      132.4850   23.6020   29.2440 N.pl3  98  ARG98       0.1354
    105  N        118.4170   31.6270   24.7500 N.3   116  ARG116     -0.1245
    106  CA       117.1150   31.1880   25.2190 C.3   116  ARG116      0.1563
    107  C        117.1450   31.2270   26.7470 C.2   116  ARG116      0.2260
    108  O        118.1960   30.9950   27.3590 O.2   116  ARG116     -0.2867
    109  CB       116.7930   29.7730   24.7170 C.3   116  ARG116      0.0307
    110  CG       116.5310   29.6870   23.2110 C.3   116  ARG116      0.0489
    111  CD       115.5500   30.7800   22.7800 C.3   116  ARG116      0.2205
    112  NE       114.2090   30.5850   23.3390 N.pl3 116  ARG116     -0.0865
    113  CZ       113.4520   31.5560   23.8460 C.cat 116  ARG116      0.5346
    114  NH1      113.9050   32.8030   23.9180 N.pl3 116  ARG116      0.1354
    115  NH2      112.2450   31.2720   24.3160 N.pl3 116  ARG116      0.1354
    116  N        115.7560   29.2080   28.9210 N.3   118  LYS118     -0.1231
    117  CA       115.8980   27.8950   29.5450 C.3   118  LYS118      0.1693
    118  C        117.1590   27.1540   29.0880 C.2   118  LYS118      0.2592
    119  O        117.1410   25.9450   28.8620 O.2   118  LYS118     -0.2718
    120  CB       114.6240   27.0460   29.3550 C.3   118  LYS118      0.0285
    121  CG       113.2760   27.7410   29.7170 C.3   118  LYS118      0.0035
    122  CD       113.2450   28.4320   31.1000 C.3   118  LYS118      0.0206
    123  CE       113.2830   27.4560   32.2640 C.3   118  LYS118      0.1093
    124  NZ       112.0710   26.6080   32.2950 N.3   118  LYS118     -0.1314
    125  N        118.2530   27.9010   28.9690 N.am  119  SER119     -0.1952
    126  CA       119.5580   27.3610   28.5860 C.3   119  SER119      0.1924
    127  C        120.6530   28.3350   29.0230 C.2   119  SER119      0.2314
    128  O        121.6400   28.5380   28.3210 O.2   119  SER119     -0.2863
    129  CB       119.6310   27.1330   27.0750 C.3   119  SER119      0.2116
    130  OG       119.7690   28.3680   26.3930 O.3   119  SER119     -0.2180
    131  N        122.3350   27.9900   31.8990 N.3   121  GLU121     -0.1231
    132  CA       123.4030   27.2520   32.5490 C.3   121  GLU121      0.1699
    133  C        124.4870   26.8840   31.5330 C.2   121  GLU121      0.2592
    134  O        125.6920   26.9480   31.8400 O.2   121  GLU121     -0.2718
    135  CB       122.8650   26.0120   33.2650 C.3   121  GLU121      0.0402
    136  CG       123.9220   25.2600   34.1010 C.3   121  GLU121      0.1161
    137  CD       124.3650   26.0040   35.3660 C.2   121  GLU121      0.3649
    138  OE1      123.6200   27.1110   35.7780 O.co2 121  GLU121     -0.2457
    139  OE2      125.4750   25.4670   35.9680 O.co2 121  GLU121     -0.2457
    140  N        124.0620   26.5220   30.3180 N.am  122  PHE122     -0.1962
    141  CA       125.0190   26.2150   29.2610 C.3   122  PHE122      0.1771
    142  C        125.9780   27.3780   29.0150 C.2   122  PHE122      0.2619
    143  O        127.1730   27.1730   28.8370 O.2   122  PHE122     -0.2715
    144  CB       124.3080   25.8390   27.9590 C.3   122  PHE122      0.0574
    145  CG       125.2250   25.7750   26.7660 C.ar  122  PHE122     -0.0200
    146  CD1      125.8680   24.5900   26.4300 C.ar  122  PHE122     -0.0042
    147  CD2      125.4550   26.9100   25.9860 C.ar  122  PHE122     -0.0042
    148  CE1      126.7220   24.5280   25.3380 C.ar  122  PHE122     -0.0003
    149  CE2      126.3090   26.8620   24.8870 C.ar  122  PHE122     -0.0003
    150  CZ       126.9470   25.6660   24.5630 C.ar  122  PHE122     -0.0000
    151  N        125.4450   28.5960   28.9940 N.am  123  TRP123     -0.1974
    152  CA       126.2630   29.7860   28.7620 C.3   123  TRP123      0.1640
    153  C        127.1260   30.1460   29.9530 C.2   123  TRP123      0.2290
    154  O        128.1820   30.7650   29.7980 O.2   123  TRP123     -0.2864
    155  CB       125.4010   30.9660   28.3760 C.3   123  TRP123      0.0576
    156  CG       124.8140   30.8100   27.0390 C.ar  123  TRP123      0.0006
    157  CD1      123.5160   30.5310   26.7410 C.ar  123  TRP123      0.0946
    158  CD2      125.5000   30.9060   25.7910 C.ar  123  TRP123      0.0152
    159  NE1      123.3410   30.4660   25.3820 N.ar  123  TRP123     -0.2442
    160  CE2      124.5470   30.6910   24.7740 C.ar  123  TRP123      0.0810
    161  CE3      126.8280   31.1650   25.4290 C.ar  123  TRP123      0.0012
    162  CZ2      124.8800   30.7240   23.4170 C.ar  123  TRP123      0.0191
    163  CZ3      127.1570   31.2010   24.0760 C.ar  123  TRP123      0.0001
    164  CH2      126.1870   30.9800   23.0890 C.ar  123  TRP123      0.0015
    165  N        128.6180   27.9590   31.6810 N.3   125  LYS125     -0.1231
    166  CA       129.7610   27.0900   31.3930 C.3   125  LYS125      0.1693
    167  C        130.6540   27.7000   30.3120 C.2   125  LYS125      0.2591
    168  O        131.8750   27.7000   30.4550 O.2   125  LYS125     -0.2718
    169  CB       129.3260   25.6770   30.9570 C.3   125  LYS125      0.0285
    170  CG       128.3650   24.9300   31.8680 C.3   125  LYS125      0.0035
    171  CD       128.8630   24.8900   33.2910 C.3   125  LYS125      0.0206
    172  CE       128.2380   23.7370   34.0510 C.3   125  LYS125      0.1093
    173  NZ       128.8330   22.4320   33.6230 N.3   125  LYS125     -0.1314
    174  N        130.0620   28.2270   29.2400 N.am  126  MET126     -0.1979
    175  CA       130.8640   28.8360   28.1840 C.3   126  MET126      0.1605
    176  C        131.5780   30.0820   28.6870 C.2   126  MET126      0.2287
    177  O        132.3720   30.6820   27.9690 O.2   126  MET126     -0.2864
    178  CB       130.0160   29.1770   26.9660 C.3   126  MET126      0.0413
    179  CG       129.3800   28.0000   26.2390 C.3   126  MET126      0.0598
    180  SD       130.4940   26.6720   25.7810 S.3   126  MET126     -0.1393
    181  CE       130.3880   25.6060   27.2320 C.3   126  MET126      0.0692
@<TRIPOS>BOND
     1    45    44    1
     2     4     3    2
     3     1     2    1
     4    44    43   ar
     5    44    42   ar
     6     3     2    1
     7     2     5    1
     8    43    41   ar
     9    42    40   ar
    10    25    24   ar
    11    21    20    2
    12    41    39   ar
    13    40    39   ar
    14    89    88    1
    15    24    26   ar
    16    24    23    1
    17    86    88   ar
    18    86    84   ar
    19     5     6    1
    20    39    38    1
    21    22    23    1
    22    22    19    1
    23    88    87   ar
    24    10    11    1
    25    20    19    1
    26    20    27   am
    27    84    83   ar
    28    18    19    1
    29    18    12   am
    30     6     7    1
    31    11    12    1
    32    11    14    1
    33    87    85   ar
    34    28    29    1
    35    28    27    1
    36    28    31    1
    37    29    30    2
    38    83    85   ar
    39    83    82    1
    40    38    35    1
    41    12    13    2
    42    82    79    1
    43    16    15    1
    44    81    80    2
    45    32    31    1
    46    14    15    1
    47    31    33    1
    48     7     8    1
    49    79    80    1
    50    79    78    1
    51    80    90   am
    52    15    17    1
    53    35    34    1
    54    35    36    1
    55    72    71    1
    56     9     8    1
    57    37    36    2
    58    90    91    1
    59    36    46   am
    60    93    92    2
    61    78    76   am
    62    91    92    1
    63    71    73    1
    64    71    70    2
    65    77    76    2
    66    92    94   am
    67    69    70    1
    68    69    68    1
    69    76    75    1
    70    46    47    1
    71    97    96    2
    72    96    95    1
    73    54    52   am
    74    51    52    1
    75    51    50    1
    76    67    68    1
    77    67    64    1
    78    66    65    2
    79    94    95    1
    80   111   110    1
    81   111   112    1
    82    47    50    1
    83    47    48    1
    84    52    53    2
    85   164   162   ar
    86   164   163   ar
    87    95    98    1
    88   110   109    1
    89    65    74   am
    90    65    64    1
    91    75    74    1
    92   112   113    2
    93   162   160   ar
    94    64    63    1
    95   113   114    1
    96   113   115    1
    97    48    49    2
    98    48    55   am
    99   163   161   ar
   100    63    57   am
   101    98    99    1
   102   150   149   ar
   103   150   148   ar
   104    99   100    1
   105   109   106    1
   106   105   106    1
   107   160   159   ar
   108   160   158   ar
   109    55    56    1
   110   149   147   ar
   111   106   107    1
   112   148   146   ar
   113   159   157   ar
   114   161   158   ar
   115    57    56    1
   116    57    58    2
   117   180   179    1
   118   180   181    1
   119   158   156   ar
   120   100   101    1
   121    56    59    1
   122   147   145   ar
   123   179   178    1
   124   130   129    1
   125   146   145   ar
   126   157   156   ar
   127   107   108    2
   128   145   144    1
   129   178   175    1
   130   156   155    1
   131   101   102    2
   132    59    60    1
   133   129   126    1
   134    60    61    2
   135    60    62   am
   136   144   141    1
   137   177   176    2
   138   175   176    1
   139   175   174    1
   140   102   103    1
   141   102   104    1
   142   128   127    2
   143   155   152    1
   144   126   125    1
   145   126   127    1
   146   152   151    1
   147   152   153    1
   148   143   142    2
   149   119   118    2
   150   116   117    1
   151   125   118   am
   152   151   142   am
   153   142   141    1
   154   118   117    1
   155   174   167   am
   156   141   140    1
   157   120   117    1
   158   120   121    1
   159   121   122    1
   160   154   153    2
   161   167   168    2
   162   167   166    1
   163   140   133   am
   164   169   166    1
   165   169   170    1
   166   122   123    1
   167   166   165    1
   168   133   134    2
   169   133   132    1
   170   170   171    1
   171   131   132    1
   172   123   124    1
   173   132   135    1
   174   135   136    1
   175   171   172    1
   176   173   172    1
   177   136   137    1
   178   137   138   ar
   179   137   139   ar
