@<TRIPOS>MOLECULE
tmp/2pr3A00.pdb
 195 192 0 0 0
SMALL
GASTEIGER

@<TRIPOS>ATOM
      1  N         38.4280    5.0380   10.6380 N.3    82  LYS82      -0.1231
      2  CA        37.4120    5.1230   11.6760 C.3    82  LYS82       0.1693
      3  C         36.9340    3.7120   12.0190 C.2    82  LYS82       0.2592
      4  O         36.3320    3.4810   13.0720 O.2    82  LYS82      -0.2718
      5  CB        36.2380    5.9590   11.1630 C.3    82  LYS82       0.0285
      6  CG        36.6500    7.3110   10.5960 C.3    82  LYS82       0.0035
      7  CD        35.6430    7.8300    9.5760 C.3    82  LYS82       0.0206
      8  CE        35.6130    6.9470    8.3330 C.3    82  LYS82       0.1093
      9  NZ        34.6600    7.4510    7.3040 N.3    82  LYS82      -0.1314
     10  N         37.2230    2.7720   11.1220 N.am   83  GLU83      -0.1966
     11  CA        36.8370    1.3730   11.2870 C.3    83  GLU83       0.1733
     12  C         37.6070    0.6480   12.3850 C.2    83  GLU83       0.2617
     13  O         37.0670   -0.2320   13.0580 O.2    83  GLU83      -0.2715
     14  CB        37.0480    0.6110    9.9740 C.3    83  GLU83       0.0429
     15  CG        36.9010    1.4490    8.7130 C.3    83  GLU83       0.1163
     16  CD        35.5260    2.0610    8.5720 C.2    83  GLU83       0.3649
     17  OE1       34.5330    1.3030    8.6000 O.co2  83  GLU83      -0.2457
     18  OE2       35.4370    3.2990    8.4300 O.co2  83  GLU83      -0.2457
     19  N         38.8720    1.0120   12.5660 N.am   84  THR84      -0.1937
     20  CA        39.6970    0.3730   13.5820 C.3    84  THR84       0.2028
     21  C         40.3600    1.3490   14.5390 C.2    84  THR84       0.2642
     22  O         40.8830    0.9380   15.5720 O.2    84  THR84      -0.2714
     23  CB        40.8280   -0.4300   12.9320 C.3    84  THR84       0.1808
     24  OG1       41.6730    0.4700   12.2020 O.3    84  THR84      -0.2208
     25  CG2       40.2710   -1.4790   11.9820 C.3    84  THR84       0.0379
     26  N         40.3330    2.6290   14.1840 N.am   85  TYR85      -0.1973
     27  CA        40.9390    3.6880   14.9900 C.3    85  TYR85       0.1639
     28  C         42.4410    3.4940   15.0990 C.2    85  TYR85       0.2290
     29  O         43.0940    4.0550   15.9760 O.2    85  TYR85      -0.2864
     30  CB        40.3150    3.7730   16.3860 C.3    85  TYR85       0.0560
     31  CG        39.2660    4.8530   16.4760 C.ar   85  TYR85      -0.0198
     32  CD1       38.1340    4.8150   15.6630 C.ar   85  TYR85      -0.0009
     33  CD2       39.4200    5.9380   17.3410 C.ar   85  TYR85      -0.0009
     34  CE1       37.1860    5.8250   15.7030 C.ar   85  TYR85       0.0417
     35  CE2       38.4710    6.9600   17.3890 C.ar   85  TYR85       0.0417
     36  CZ        37.3590    6.8930   16.5650 C.ar   85  TYR85       0.1957
     37  OH        36.4160    7.8910   16.5850 O.3    85  TYR85      -0.2866
     38  N         35.3080   15.9050   29.2980 N.3   132  ARG132     -0.1245
     39  CA        34.2280   15.6490   30.2370 C.3   132  ARG132      0.1563
     40  C         34.7940   15.0070   31.5010 C.2   132  ARG132      0.2260
     41  O         35.7600   14.2430   31.4430 O.2   132  ARG132     -0.2867
     42  CB        33.1990   14.7330   29.5670 C.3   132  ARG132      0.0307
     43  CG        32.7270   15.2930   28.2300 C.3   132  ARG132      0.0489
     44  CD        32.0610   14.2600   27.3310 C.3   132  ARG132      0.2205
     45  NE        30.7590   13.8270   27.8220 N.pl3 132  ARG132     -0.0865
     46  CZ        29.9000   13.1040   27.1100 C.cat 132  ARG132      0.5346
     47  NH1       28.7360   12.7480   27.6330 N.pl3 132  ARG132      0.1354
     48  NH2       30.2010   12.7460   25.8690 N.pl3 132  ARG132      0.1354
     49  N         31.3900   10.2900   32.1110 N.3   135  GLU135     -0.1245
     50  CA        31.0180    9.7030   30.8310 C.3   135  GLU135      0.1567
     51  C         29.8970   10.4910   30.1630 C.2   135  GLU135      0.2260
     52  O         29.9930   10.8520   28.9910 O.2   135  GLU135     -0.2867
     53  CB        30.5940    8.2450   31.0280 C.3   135  GLU135      0.0388
     54  CG        30.5040    7.4440   29.7390 C.3   135  GLU135      0.1160
     55  CD        30.2400    5.9710   29.9860 C.2   135  GLU135      0.3649
     56  OE1       31.0430    5.3340   30.7010 O.co2 135  GLU135     -0.2457
     57  OE2       29.2330    5.4490   29.4640 O.co2 135  GLU135     -0.2457
     58  N         37.4170   -4.4370   21.2350 N.3   162  PHE162     -0.1227
     59  CA        38.0020   -4.1520   19.9310 C.3   162  PHE162      0.1736
     60  C         39.4740   -4.5530   19.8880 C.2   162  PHE162      0.2595
     61  O         40.1270   -4.6780   20.9240 O.2   162  PHE162     -0.2718
     62  CB        37.8600   -2.6610   19.6270 C.3   162  PHE162      0.0547
     63  CG        36.4400   -2.1740   19.6600 C.ar  162  PHE162     -0.0202
     64  CD1       35.6080   -2.3340   18.5570 C.ar  162  PHE162     -0.0042
     65  CD2       35.9240   -1.5840   20.8080 C.ar  162  PHE162     -0.0042
     66  CE1       34.2800   -1.9120   18.5960 C.ar  162  PHE162     -0.0003
     67  CE2       34.6000   -1.1610   20.8590 C.ar  162  PHE162     -0.0003
     68  CZ        33.7760   -1.3240   19.7520 C.ar  162  PHE162     -0.0000
     69  N         39.9920   -4.7470   18.6800 N.am  163  ILE163     -0.1980
     70  CA        41.3820   -5.1350   18.5040 C.3   163  ILE163      0.1595
     71  C         42.3670   -4.0450   18.9150 C.2   163  ILE163      0.2287
     72  O         42.2760   -2.9060   18.4580 O.2   163  ILE163     -0.2864
     73  CB        41.6750   -5.5110   17.0310 C.3   163  ILE163      0.0276
     74  CG1       40.7850   -6.6830   16.6000 C.3   163  ILE163      0.0022
     75  CG2       43.1490   -5.8570   16.8670 C.3   163  ILE163      0.0022
     76  CD1       40.9850   -7.9460   17.4140 C.3   163  ILE163      0.0001
     77  N         39.8870    8.1730   34.6880 N.3   179  ASP179     -0.1225
     78  CA        40.2370    7.8700   33.3060 C.3   179  ASP179      0.1805
     79  C         40.0980    9.1340   32.4640 C.2   179  ASP179      0.2598
     80  O         39.6210   10.1630   32.9440 O.2   179  ASP179     -0.2718
     81  CB        39.2810    6.7710   32.8080 C.3   179  ASP179      0.1424
     82  CG        39.5770    6.3010   31.3950 C.2   179  ASP179      0.3668
     83  OD1       40.7240    6.4520   30.9270 O.co2 179  ASP179     -0.2456
     84  OD2       38.6480    5.7520   30.7610 O.co2 179  ASP179     -0.2456
     85  N         40.5570    9.0780   31.2200 N.am  180  ALA180     -0.1966
     86  CA        40.4410   10.2310   30.3510 C.3   180  ALA180      0.1728
     87  C         39.0320   10.0420   29.8120 C.2   180  ALA180      0.2616
     88  O         38.3710    9.0590   30.1510 O.2   180  ALA180     -0.2715
     89  CB        41.4580   10.1620   29.2200 C.3   180  ALA180      0.0334
     90  N         38.5660   10.9590   28.9800 N.am  181  CYS181     -0.1954
     91  CA        37.2260   10.8220   28.4390 C.3   181  CYS181      0.1843
     92  C         37.0640   11.6730   27.1900 C.2   181  CYS181      0.2625
     93  O         38.0130   12.3210   26.7450 O.2   181  CYS181     -0.2714
     94  CB        36.2070   11.2170   29.5140 C.3   181  CYS181      0.0997
     95  SG        34.4980   10.6320   29.2460 S.3   181  CYS181     -0.0797
     96  N         35.8680   11.6560   26.6110 N.am  182  GLN182     -0.1977
     97  CA        35.5940   12.4330   25.4110 C.3   182  GLN182      0.1601
     98  C         35.9450   13.8950   25.6790 C.2   182  GLN182      0.2287
     99  O         35.5950   14.4460   26.7250 O.2   182  GLN182     -0.2864
    100  CB        34.1190   12.2980   25.0270 C.3   182  GLN182      0.0394
    101  CG        33.7890   12.8020   23.6320 C.3   182  GLN182      0.0908
    102  CD        32.4040   12.3800   23.1820 C.2   182  GLN182      0.2608
    103  OE1       32.0920   11.1900   23.1430 O.2   182  GLN182     -0.2717
    104  NE2       31.5680   13.3530   22.8390 N.am  182  GLN182     -0.0878
    105  N         40.5130   13.5960   23.9890 N.3   185  SER185     -0.1217
    106  CA        41.1080   13.0140   22.7900 C.3   185  SER185      0.1889
    107  C         42.0690   13.9560   22.0790 C.2   185  SER185      0.2288
    108  O         41.8140   15.1570   21.9620 O.2   185  SER185     -0.2866
    109  CB        40.0070   12.5920   21.8130 C.3   185  SER185      0.2089
    110  OG        39.1220   11.6670   22.4200 O.3   185  SER185     -0.2183
    111  N         45.9110   10.7470   23.5470 N.3   203  VAL203     -0.1231
    112  CA        44.6250   10.2470   24.0300 C.3   203  VAL203      0.1692
    113  C         43.8460    9.8330   22.7830 C.2   203  VAL203      0.2593
    114  O         43.5850   10.6570   21.9100 O.2   203  VAL203     -0.2718
    115  CB        43.8540   11.3470   24.8040 C.3   203  VAL203      0.0266
    116  CG1       42.5110   10.8000   25.3040 C.3   203  VAL203      0.0020
    117  CG2       44.6880   11.8310   25.9840 C.3   203  VAL203      0.0020
    118  N         43.4740    8.5600   22.6960 N.am  204  SER204     -0.1938
    119  CA        42.7430    8.0930   21.5240 C.3   204  SER204      0.2055
    120  C         41.2910    7.6520   21.7090 C.2   204  SER204      0.2643
    121  O         40.3830    8.2840   21.1700 O.2   204  SER204     -0.2714
    122  CB        43.5430    6.9680   20.8560 C.3   204  SER204      0.2130
    123  OG        42.9840    6.6040   19.6070 O.3   204  SER204     -0.2179
    124  N         41.0700    6.5740   22.4510 N.am  205  TRP205     -0.1959
    125  CA        39.7050    6.0940   22.6590 C.3   205  TRP205      0.1771
    126  C         39.5210    5.1910   23.8750 C.2   205  TRP205      0.2620
    127  O         40.4620    4.8840   24.6060 O.2   205  TRP205     -0.2715
    128  CB        39.2210    5.3420   21.4120 C.3   205  TRP205      0.0590
    129  CG        40.0270    4.1100   21.0860 C.ar  205  TRP205      0.0006
    130  CD1       41.2060    4.0570   20.3980 C.ar  205  TRP205      0.0946
    131  CD2       39.7090    2.7550   21.4380 C.ar  205  TRP205      0.0152
    132  NE1       41.6450    2.7530   20.2980 N.ar  205  TRP205     -0.2442
    133  CE2       40.7460    1.9350   20.9300 C.ar  205  TRP205      0.0810
    134  CE3       38.6470    2.1540   22.1290 C.ar  205  TRP205      0.0012
    135  CZ2       40.7530    0.5460   21.0940 C.ar  205  TRP205      0.0191
    136  CZ3       38.6530    0.7650   22.2890 C.ar  205  TRP205      0.0001
    137  CH2       39.7020   -0.0190   21.7740 C.ar  205  TRP205      0.0015
    138  N         38.2790    4.7680   24.0740 N.am  206  GLY206     -0.1940
    139  CA        37.9510    3.8850   25.1750 C.3   206  GLY206      0.2014
    140  C         36.4770    3.5440   25.0890 C.2   206  GLY206      0.2639
    141  O         35.7100    4.2730   24.4560 O.2   206  GLY206     -0.2714
    142  N         36.0740    2.4460   25.7150 N.am  207  GLU207     -0.1963
    143  CA        34.6710    2.0510   25.7080 C.3   207  GLU207      0.1733
    144  C         34.0290    2.7210   26.9170 C.2   207  GLU207      0.2617
    145  O         34.0620    2.1900   28.0240 O.2   207  GLU207     -0.2715
    146  CB        34.5600    0.5330   25.8050 C.3   207  GLU207      0.0429
    147  CG        35.2820   -0.1790   24.6720 C.3   207  GLU207      0.1163
    148  CD        35.1660   -1.6860   24.7580 C.2   207  GLU207      0.3649
    149  OE1       34.0250   -2.1910   24.8010 O.co2 207  GLU207     -0.2457
    150  OE2       36.2140   -2.3650   24.7770 O.co2 207  GLU207     -0.2457
    151  N         33.4560    3.8980   26.6900 N.am  208  GLY208     -0.1940
    152  CA        32.8490    4.6480   27.7760 C.3   208  GLY208      0.2014
    153  C         33.9640    5.3410   28.5360 C.2   208  GLY208      0.2639
    154  O         35.0370    5.5520   27.9960 O.2   208  GLY208     -0.2714
    155  N         33.7420    5.7040   29.7870 N.am  209  CYS209     -0.1967
    156  CA        34.8070    6.3570   30.5310 C.3   209  CYS209      0.1712
    157  C         34.8930    5.8490   31.9600 C.2   209  CYS209      0.2296
    158  O         33.8900    5.7920   32.6750 O.2   209  CYS209     -0.2864
    159  CB        34.6120    7.8780   30.5220 C.3   209  CYS209      0.0983
    160  SG        34.6900    8.6430   28.8670 S.3   209  CYS209     -0.0798
    161  N         35.0740    3.0030   32.9980 N.3   211  ARG211     -0.1245
    162  CA        34.2180    1.8380   33.1950 C.3   211  ARG211      0.1563
    163  C         35.0100    0.6400   33.7070 C.2   211  ARG211      0.2260
    164  O         36.1580    0.4260   33.3190 O.2   211  ARG211     -0.2867
    165  CB        33.4880    1.5070   31.8890 C.3   211  ARG211      0.0307
    166  CG        32.4170    2.5370   31.5640 C.3   211  ARG211      0.0489
    167  CD        32.0090    2.5640   30.1010 C.3   211  ARG211      0.2205
    168  NE        31.3290    1.3520   29.6570 N.pl3 211  ARG211     -0.0865
    169  CZ        30.6210    1.2740   28.5340 C.cat 211  ARG211      0.5346
    170  NH1       30.0360    0.1340   28.1920 N.pl3 211  ARG211      0.1354
    171  NH2       30.4850    2.3430   27.7590 N.pl3 211  ARG211      0.1354
    172  N         41.8920    3.0780   29.2380 N.3   216  GLY216     -0.1210
    173  CA        41.9720    4.1380   28.2510 C.3   216  GLY216      0.1956
    174  C         42.9360    3.6570   27.1790 C.2   216  GLY216      0.2612
    175  O         43.9450    3.0330   27.5060 O.2   216  GLY216     -0.2717
    176  N         42.6270    3.9350   25.9160 N.am  217  ILE217     -0.1965
    177  CA        43.4810    3.5110   24.8090 C.3   217  ILE217      0.1727
    178  C         44.1840    4.7360   24.2390 C.2   217  ILE217      0.2616
    179  O         43.5470    5.7410   23.9090 O.2   217  ILE217     -0.2715
    180  CB        42.6630    2.8070   23.7010 C.3   217  ILE217      0.0290
    181  CG1       41.6310    1.8610   24.3310 C.3   217  ILE217      0.0022
    182  CG2       43.6050    2.0210   22.7930 C.3   217  ILE217      0.0023
    183  CD1       42.2200    0.7760   25.2080 C.3   217  ILE217      0.0001
    184  N         45.5000    4.6310   24.1070 N.am  218  TYR218     -0.1974
    185  CA        46.3160    5.7190   23.5930 C.3   218  TYR218      0.1639
    186  C         47.1530    5.3300   22.3880 C.2   218  TYR218      0.2290
    187  O         47.5290    4.1680   22.2400 O.2   218  TYR218     -0.2864
    188  CB        47.2860    6.1740   24.6860 C.3   218  TYR218      0.0560
    189  CG        46.6300    6.6620   25.9560 C.ar  218  TYR218     -0.0198
    190  CD1       45.9760    5.7790   26.8190 C.ar  218  TYR218     -0.0009
    191  CD2       46.6450    8.0120   26.2830 C.ar  218  TYR218     -0.0009
    192  CE1       45.3490    6.2420   27.9740 C.ar  218  TYR218      0.0417
    193  CE2       46.0230    8.4840   27.4310 C.ar  218  TYR218      0.0417
    194  CZ        45.3770    7.5970   28.2690 C.ar  218  TYR218      0.1957
    195  OH        44.7500    8.0870   29.3980 O.3   218  TYR218     -0.2866
@<TRIPOS>BOND
     1     9     8    1
     2     8     7    1
     3    18    16   ar
     4    16    17   ar
     5    16    15    1
     6    15    14    1
     7     7     6    1
     8    14    11    1
     9     6     5    1
    10     1     2    1
    11    10    11    1
    12    10     3   am
    13     5     2    1
    14    11    12    1
    15     2     3    1
    16    25    23    1
    17     3     4    2
    18    24    23    1
    19    12    19   am
    20    12    13    2
    21    19    20    1
    22    23    20    1
    23    20    21    1
    24    26    21   am
    25    26    27    1
    26    21    22    2
    27    27    28    1
    28    27    30    1
    29    28    29    2
    30    32    34   ar
    31    32    31   ar
    32    34    36   ar
    33    30    31    1
    34    31    33   ar
    35    36    37    1
    36    36    35   ar
    37    74    73    1
    38    74    76    1
    39    75    73    1
    40    73    70    1
    41    33    35   ar
    42    72    71    2
    43    70    69    1
    44    70    71    1
    45    64    66   ar
    46    64    63   ar
    47    66    68   ar
    48    69    60   am
    49   123   122    1
    50    62    63    1
    51    62    59    1
    52    63    65   ar
    53    68    67   ar
    54    60    59    1
    55    60    61    2
    56    59    58    1
    57   132   130   ar
    58   132   133   ar
    59   130   129   ar
    60    65    67   ar
    61   122   119    1
    62   133   135   ar
    63   133   131   ar
    64   129   128    1
    65   129   131   ar
    66   135   137   ar
    67   121   120    2
    68   128   125    1
    69   131   134   ar
    70   119   120    1
    71   119   118    1
    72   120   124   am
    73   137   136   ar
    74   109   110    1
    75   109   106    1
    76   114   113    2
    77   108   107    2
    78   107   106    1
    79   134   136   ar
    80   187   186    2
    81   186   185    1
    82   124   125    1
    83   125   126    1
    84   118   113   am
    85   113   112    1
    86   106   105    1
    87   182   180    1
    88   104   102   am
    89   103   102    2
    90   102   101    1
    91   111   112    1
    92   185   184    1
    93   185   188    1
    94   101   100    1
    95   180   181    1
    96   180   177    1
    97   126   138   am
    98   126   127    2
    99   179   178    2
   100   112   115    1
   101   138   139    1
   102   184   178   am
   103   178   177    1
   104   181   183    1
   105   141   140    2
   106   147   148    1
   107   147   146    1
   108   188   189    1
   109   148   150   ar
   110   148   149   ar
   111   115   116    1
   112   115   117    1
   113   177   176    1
   114   100    97    1
   115   140   139    1
   116   140   142   am
   117    97    98    1
   118    97    96    1
   119    98    99    2
   120   143   142    1
   121   143   146    1
   122   143   144    1
   123    48    46    1
   124   176   174   am
   125   189   191   ar
   126   189   190   ar
   127   191   193   ar
   128    96    92   am
   129   151   144   am
   130   151   152    1
   131    93    92    2
   132   190   192   ar
   133   144   145    2
   134    46    47    1
   135    46    45    2
   136   174   175    2
   137   174   173    1
   138    92    91    1
   139    44    45    1
   140    44    43    1
   141   193   194   ar
   142   171   169    1
   143   152   153    1
   144   192   194   ar
   145   154   153    2
   146   170   169    1
   147    43    42    1
   148   173   172    1
   149   194   195    1
   150    91    90    1
   151    91    94    1
   152   169   168    2
   153   153   155   am
   154   160    95    1
   155   160   159    1
   156    90    87   am
   157    52    51    2
   158    89    86    1
   159    95    94    1
   160    38    39    1
   161    57    55   ar
   162    42    39    1
   163   168   167    1
   164    54    55    1
   165    54    53    1
   166   155   156    1
   167    87    88    2
   168    87    86    1
   169    55    56   ar
   170   167   166    1
   171    51    50    1
   172    39    40    1
   173    86    85    1
   174   159   156    1
   175   156   157    1
   176    84    82   ar
   177    50    53    1
   178    50    49    1
   179    83    82   ar
   180    85    79   am
   181    82    81    1
   182    41    40    2
   183   166   165    1
   184   165   162    1
   185   157   158    2
   186    79    80    2
   187    79    78    1
   188    81    78    1
   189   161   162    1
   190   162   163    1
   191    78    77    1
   192   164   163    2
