@<TRIPOS>MOLECULE
tmp/2pr8A00.pdb
 131 130 0 0 0
SMALL
GASTEIGER

@<TRIPOS>ATOM
      1  N          7.7050  -16.6250  -21.5740 N.3    73  TYR73      -0.1241
      2  CA         6.3490  -16.4460  -22.0710 C.3    73  TYR73       0.1605
      3  C          6.3040  -17.0700  -23.4510 C.2    73  TYR73       0.2264
      4  O          7.3480  -17.1760  -24.0860 O.2    73  TYR73      -0.2867
      5  CB         5.9740  -14.9580  -22.1340 C.3    73  TYR73       0.0534
      6  CG         6.9870  -14.1110  -22.9040 C.ar   73  TYR73      -0.0201
      7  CD1        6.8120  -13.8850  -24.2770 C.ar   73  TYR73      -0.0009
      8  CD2        8.1130  -13.5370  -22.2730 C.ar   73  TYR73      -0.0009
      9  CE1        7.7070  -13.1830  -25.0090 C.ar   73  TYR73       0.0417
     10  CE2        9.0380  -12.7590  -23.0160 C.ar   73  TYR73       0.0417
     11  CZ         8.7920  -12.6010  -24.3910 C.ar   73  TYR73       0.1957
     12  OH         9.6340  -11.9080  -25.2100 O.3    73  TYR73      -0.2866
     13  N          2.3870   -7.0320  -28.5640 N.3    82  TRP82      -0.1227
     14  CA         3.6380   -7.7650  -28.4430 C.3    82  TRP82       0.1737
     15  C          3.7270   -8.9230  -29.4510 C.2    82  TRP82       0.2595
     16  O          2.7810   -9.7370  -29.5550 O.2    82  TRP82      -0.2718
     17  CB         3.7840   -8.2810  -27.0000 C.3    82  TRP82       0.0564
     18  CG         4.1210   -7.1840  -26.0440 C.ar   82  TRP82       0.0003
     19  CD1        3.2650   -6.4990  -25.2540 C.ar   82  TRP82       0.0946
     20  CD2        5.4180   -6.5750  -25.8650 C.ar   82  TRP82       0.0152
     21  NE1        3.9440   -5.5090  -24.5670 N.ar   82  TRP82      -0.2442
     22  CE2        5.2690   -5.5450  -24.9120 C.ar   82  TRP82       0.0810
     23  CE3        6.6760   -6.8150  -26.4010 C.ar   82  TRP82       0.0012
     24  CZ2        6.3560   -4.7390  -24.4780 C.ar   82  TRP82       0.0191
     25  CZ3        7.7580   -6.0160  -25.9700 C.ar   82  TRP82       0.0001
     26  CH2        7.5910   -5.0070  -25.0160 C.ar   82  TRP82       0.0015
     27  N          4.8740   -9.0250  -30.1520 N.am   83  TRP83      -0.1976
     28  CA         5.2060  -10.2200  -30.9650 C.3    83  TRP83       0.1640
     29  C          4.1020  -10.5810  -31.9870 C.2    83  TRP83       0.2290
     30  O          3.7850  -11.7440  -32.2220 O.2    83  TRP83      -0.2864
     31  CB         5.6160  -11.4070  -30.0580 C.3    83  TRP83       0.0576
     32  CG         6.5460  -10.9130  -28.9490 C.ar   83  TRP83       0.0006
     33  CD1        6.3310  -10.9630  -27.6070 C.ar   83  TRP83       0.0946
     34  CD2        7.7880  -10.2340  -29.1410 C.ar   83  TRP83       0.0152
     35  NE1        7.3970  -10.3690  -26.9280 N.ar   83  TRP83      -0.2442
     36  CE2        8.3000   -9.9120  -27.8520 C.ar   83  TRP83       0.0810
     37  CE3        8.5330   -9.8740  -30.2830 C.ar   83  TRP83       0.0012
     38  CZ2        9.5110   -9.2360  -27.6680 C.ar   83  TRP83       0.0191
     39  CZ3        9.7530   -9.1910  -30.1040 C.ar   83  TRP83       0.0001
     40  CH2       10.2210   -8.8800  -28.7970 C.ar   83  TRP83       0.0015
     41  N         12.1950  -14.8000  -23.0400 N.3    94  ILE94      -0.1231
     42  CA        12.6410  -14.6790  -21.6580 C.3    94  ILE94       0.1692
     43  C         12.7430  -13.2290  -21.2180 C.2    94  ILE94       0.2592
     44  O         13.0440  -12.3440  -22.0320 O.2    94  ILE94      -0.2718
     45  CB        13.9730  -15.4040  -21.3830 C.3    94  ILE94       0.0266
     46  CG1       15.1090  -14.8100  -22.2470 C.3    94  ILE94       0.0019
     47  CG2       13.7920  -16.9290  -21.6210 C.3    94  ILE94       0.0020
     48  CD1       16.4730  -15.2180  -21.8550 C.3    94  ILE94       0.0001
     49  N         12.3950  -12.9900  -19.9530 N.am   95  ASP95      -0.1960
     50  CA        12.4290  -11.6680  -19.3750 C.3    95  ASP95       0.1840
     51  C         13.2960  -11.7470  -18.1280 C.2    95  ASP95       0.2622
     52  O         12.9010  -12.2780  -17.0950 O.2    95  ASP95      -0.2715
     53  CB        11.0050  -11.1890  -19.0490 C.3    95  ASP95       0.1450
     54  CG        10.9760   -9.8270  -18.3650 C.2    95  ASP95       0.3671
     55  OD1       12.0640   -9.2150  -18.1220 O.co2  95  ASP95      -0.2456
     56  OD2        9.8440   -9.3650  -18.0850 O.co2  95  ASP95      -0.2456
     57  N         14.5010  -11.2240  -18.2300 N.am   96  LEU96      -0.1963
     58  CA        15.4410  -11.2480  -17.1140 C.3    96  LEU96       0.1728
     59  C         15.4470   -9.8910  -16.4050 C.2    96  LEU96       0.2616
     60  O         16.2780   -9.6410  -15.5610 O.2    96  LEU96      -0.2715
     61  CB        16.8460  -11.5930  -17.6480 C.3    96  LEU96       0.0311
     62  CG        17.0000  -12.9640  -18.3130 C.3    96  LEU96       0.0022
     63  CD1       18.4400  -13.2660  -18.6880 C.3    96  LEU96       0.0001
     64  CD2       16.5010  -14.0560  -17.3730 C.3    96  LEU96       0.0001
     65  N         14.5080   -9.0110  -16.7340 N.am   97  SER97      -0.1950
     66  CA        14.5370   -7.6660  -16.1500 C.3    97  SER97       0.1924
     67  C         14.6420   -7.6530  -14.6130 C.2    97  SER97       0.2314
     68  O         15.2430   -6.7350  -14.0560 O.2    97  SER97      -0.2863
     69  CB        13.3830   -6.8070  -16.6550 C.3    97  SER97       0.2116
     70  OG        12.1570   -7.2210  -16.1090 O.3    97  SER97      -0.2180
     71  N         14.9040  -13.0690  -27.0100 N.3   131  THR131     -0.1203
     72  CA        14.9820  -12.0510  -25.9850 C.3   131  THR131      0.1994
     73  C         15.1250  -10.6960  -26.7030 C.2   131  THR131      0.2618
     74  O         15.5140  -10.6510  -27.8920 O.2   131  THR131     -0.2717
     75  CB        16.1460  -12.3750  -24.9760 C.3   131  THR131      0.1784
     76  OG1       16.0830  -11.4640  -23.8630 O.3   131  THR131     -0.2211
     77  CG2       17.4950  -12.2980  -25.6750 C.3   131  THR131      0.0376
     78  N         14.7440   -9.6100  -26.0300 N.am  132  ASP132     -0.1960
     79  CA        14.6480   -8.3090  -26.6840 C.3   132  ASP132      0.1825
     80  C         15.2600   -7.2090  -25.8030 C.2   132  ASP132      0.2464
     81  O         14.5410   -6.3250  -25.3550 O.2   132  ASP132     -0.2730
     82  CB        13.1860   -7.9280  -27.0550 C.3   132  ASP132      0.1450
     83  CG        12.2500   -7.8040  -25.8360 C.2   132  ASP132      0.3671
     84  OD1       12.4510   -8.5350  -24.8440 O.co2 132  ASP132     -0.2456
     85  OD2       11.2660   -7.0040  -25.8850 O.co2 132  ASP132     -0.2456
     86  N         16.5880   -7.2490  -25.5920 N.am  133  PRO133     -0.2715
     87  CA        17.2590   -6.1810  -24.8210 C.3   133  PRO133      0.1536
     88  C         17.2440   -4.8320  -25.5130 C.2   133  PRO133      0.2599
     89  O         17.0790   -4.7650  -26.7370 O.2   133  PRO133     -0.2715
     90  CB        18.6910   -6.7060  -24.7030 C.3   133  PRO133      0.0310
     91  CG        18.8800   -7.5210  -26.0380 C.3   133  PRO133      0.0237
     92  CD        17.5510   -8.2790  -26.0400 C.3   133  PRO133      0.0939
     93  N         17.3910   -3.7540  -24.7380 N.am  134  SER134     -0.1950
     94  CA        17.5100   -2.4080  -25.3090 C.3   134  SER134      0.1924
     95  C         18.6560   -2.3640  -26.2720 C.2   134  SER134      0.2314
     96  O         19.6870   -2.9870  -26.0390 O.2   134  SER134     -0.2863
     97  CB        17.7630   -1.3540  -24.2290 C.3   134  SER134      0.2116
     98  OG        17.8760   -0.0450  -24.8180 O.3   134  SER134     -0.2180
     99  N         21.8780   -1.4560  -24.6300 N.3   137  ASN137     -0.1240
    100  CA        22.4020   -2.3160  -23.5910 C.3   137  ASN137      0.1653
    101  C         23.3880   -3.3530  -24.1470 C.2   137  ASN137      0.2266
    102  O         23.0910   -4.5670  -24.3070 O.2   137  ASN137     -0.2867
    103  CB        21.2680   -2.8890  -22.6910 C.3   137  ASN137      0.1155
    104  CG        20.8100   -1.8800  -21.6060 C.2   137  ASN137      0.2627
    105  OD1       21.5520   -0.9420  -21.2190 O.2   137  ASN137     -0.2716
    106  ND2       19.5780   -2.0730  -21.1010 N.am  137  ASN137     -0.0877
    107  N         24.3340   -6.4760  -22.0390 N.3   140  ALA140     -0.1245
    108  CA        23.3530   -7.5760  -21.9630 C.3   140  ALA140      0.1562
    109  C         23.3670   -8.3460  -23.2750 C.2   140  ALA140      0.2260
    110  O         23.2670   -9.5740  -23.2770 O.2   140  ALA140     -0.2867
    111  CB        21.9780   -7.0550  -21.6440 C.3   140  ALA140      0.0290
    112  N         23.9740  -12.3310  -23.7750 N.3   144  TYR144     -0.1241
    113  CA        23.0950  -13.2210  -24.5310 C.3   144  TYR144      0.1605
    114  C         23.8760  -13.9500  -25.6350 C.2   144  TYR144      0.2264
    115  O         23.6840  -15.1590  -25.8130 O.2   144  TYR144     -0.2867
    116  CB        21.8970  -12.4910  -25.1200 C.3   144  TYR144      0.0534
    117  CG        20.8510  -12.0070  -24.1130 C.ar  144  TYR144     -0.0201
    118  CD1       20.1930  -12.9070  -23.2470 C.ar  144  TYR144     -0.0009
    119  CD2       20.4900  -10.6790  -24.0640 C.ar  144  TYR144     -0.0009
    120  CE1       19.2270  -12.4740  -22.3500 C.ar  144  TYR144      0.0417
    121  CE2       19.5380  -10.2240  -23.1680 C.ar  144  TYR144      0.0417
    122  CZ        18.9120  -11.1320  -22.3070 C.ar  144  TYR144      0.1957
    123  OH        17.9470  -10.6770  -21.4390 O.3   144  TYR144     -0.2866
    124  N          7.2920   -1.1780  -26.2540 N.3   159  ASP159     -0.1239
    125  CA         8.2350   -0.4790  -25.3580 C.3   159  ASP159      0.1674
    126  C          9.3350    0.2190  -26.1680 C.2   159  ASP159      0.2266
    127  O         10.3190    0.7210  -25.6080 O.2   159  ASP159     -0.2867
    128  CB         8.9180   -1.4750  -24.3930 C.3   159  ASP159      0.1410
    129  CG         8.0400   -1.9260  -23.2000 C.2   159  ASP159      0.3668
    130  OD1        6.9310   -1.4080  -23.0080 O.co2 159  ASP159     -0.2456
    131  OD2        8.5430   -2.7930  -22.4120 O.co2 159  ASP159     -0.2456
@<TRIPOS>BOND
     1    30    29    2
     2    29    28    1
     3    28    27    1
     4    28    31    1
     5    37    39   ar
     6    37    34   ar
     7    27    15   am
     8    39    40   ar
     9    31    32    1
    10    16    15    2
    11    15    14    1
    12    34    32   ar
    13    34    36   ar
    14    32    33   ar
    15    40    38   ar
    16    13    14    1
    17    14    17    1
    18    74    73    2
    19    36    38   ar
    20    36    35   ar
    21    33    35   ar
    22    82    79    1
    23    82    83    1
    24    71    72    1
    25    17    18    1
    26    89    88    2
    27    73    78   am
    28    73    72    1
    29    79    78    1
    30    79    80    1
    31    23    25   ar
    32    23    20   ar
    33    95    96    2
    34    95    94    1
    35   124   125    1
    36   126   127    2
    37   126   125    1
    38    18    20   ar
    39    18    19   ar
    40    92    91    1
    41    92    86    1
    42    91    90    1
    43    72    75    1
    44    25    26   ar
    45    85    83   ar
    46    20    22   ar
    47    83    84   ar
    48   115   114    2
    49    80    86   am
    50    80    81    2
    51    77    75    1
    52   114   113    1
    53    86    87    1
    54    88    87    1
    55    88    93   am
    56   125   128    1
    57    94    93    1
    58    94    97    1
    59    19    21   ar
    60    12    11    1
    61   116   113    1
    62   116   117    1
    63    26    24   ar
    64     9    11   ar
    65     9     7   ar
    66    75    76    1
    67    22    21   ar
    68    22    24   ar
    69    87    90    1
    70    98    97    1
    71    99   100    1
    72   113   112    1
    73   128   129    1
    74    11    10   ar
    75   102   101    2
    76     7     6   ar
    77   101   100    1
    78   117   119   ar
    79   117   118   ar
    80     4     3    2
    81   119   121   ar
    82   100   103    1
    83     3     2    1
    84   110   109    2
    85   109   108    1
    86   118   120   ar
    87   129   130   ar
    88   129   131   ar
    89   121   122   ar
    90    41    42    1
    91    10     8   ar
    92     6     8   ar
    93     6     5    1
    94   103   104    1
    95   120   122   ar
    96   122   123    1
    97    46    48    1
    98    46    45    1
    99     5     2    1
   100     2     1    1
   101   107   108    1
   102    44    43    2
   103   108   111    1
   104    42    45    1
   105    42    43    1
   106    47    45    1
   107   104   105    2
   108   104   106   am
   109    43    49   am
   110    49    50    1
   111    50    53    1
   112    50    51    1
   113    53    54    1
   114    63    62    1
   115    54    55   ar
   116    54    56   ar
   117    62    61    1
   118    62    64    1
   119    57    51   am
   120    57    58    1
   121    51    52    2
   122    61    58    1
   123    58    59    1
   124    65    59   am
   125    65    66    1
   126    69    66    1
   127    69    70    1
   128    59    60    2
   129    66    67    1
   130    67    68    2
