@<TRIPOS>MOLECULE
tmp/2pr9A00.pdb
 195 193 0 0 0
SMALL
GASTEIGER

@<TRIPOS>ATOM
      1  N        -27.2870   49.8260   17.7080 N.3    16  PHE16      -0.1227
      2  CA       -28.3850   49.5290   18.6520 C.3    16  PHE16       0.1736
      3  C        -29.1380   48.2530   18.2800 C.2    16  PHE16       0.2595
      4  O        -29.5170   48.0670   17.0930 O.2    16  PHE16      -0.2718
      5  CB       -29.3760   50.6380   18.5720 C.3    16  PHE16       0.0547
      6  CG       -28.8240   52.0000   18.8860 C.ar   16  PHE16      -0.0202
      7  CD1      -28.2060   52.7420   17.9290 C.ar   16  PHE16      -0.0042
      8  CD2      -28.9730   52.5530   20.1630 C.ar   16  PHE16      -0.0042
      9  CE1      -27.7520   54.0020   18.2420 C.ar   16  PHE16      -0.0003
     10  CE2      -28.5180   53.7910   20.4580 C.ar   16  PHE16      -0.0003
     11  CZ       -27.9050   54.5120   19.4950 C.ar   16  PHE16      -0.0000
     12  N        -29.3840   47.3890   19.2590 N.am   17  LEU17      -0.1966
     13  CA       -30.1380   46.1350   18.9990 C.3    17  LEU17       0.1727
     14  C        -31.4000   46.1460   19.8400 C.2    17  LEU17       0.2613
     15  O        -31.3350   46.5380   21.0540 O.2    17  LEU17      -0.2715
     16  CB       -29.3570   44.9010   19.3800 C.3    17  LEU17       0.0311
     17  CG       -28.2010   44.8100   18.4430 C.3    17  LEU17       0.0022
     18  CD1      -27.1240   43.9150   19.1590 C.3    17  LEU17       0.0001
     19  CD2      -28.5940   44.2100   17.1120 C.3    17  LEU17       0.0001
     20  N        -32.4920   45.7020   19.1870 N.am   18  ASP18      -0.2025
     21  CA       -33.9070   45.6680   19.7040 C.3    18  ASP18       0.1395
     22  C        -34.4190   44.2080   19.6740 C.3    18  ASP18       0.2041
     23  O        -34.5500   43.6120   18.5260 O.3    18  ASP18      -0.2185
     24  CB       -34.8260   46.5520   18.8210 C.3    18  ASP18       0.1383
     25  CG       -34.6410   48.0490   19.0880 C.2    18  ASP18       0.3667
     26  OD1      -33.6770   48.4260   19.8450 O.co2  18  ASP18      -0.2456
     27  OD2      -35.4610   48.8670   18.5530 O.co2  18  ASP18      -0.2456
     28  N        -30.0620   48.6190   14.5130 N.3    45  LYS45      -0.1245
     29  CA       -29.7560   49.8690   13.7850 C.3    45  LYS45       0.1561
     30  C        -28.2550   50.1280   13.9200 C.2    45  LYS45       0.2260
     31  O        -27.7470   50.2410   15.0490 O.2    45  LYS45      -0.2867
     32  CB       -30.5200   51.0710   14.3130 C.3    45  LYS45       0.0271
     33  CG       -32.0770   50.9960   14.3270 C.3    45  LYS45       0.0035
     34  CD       -32.5420   50.7990   15.7620 C.3    45  LYS45       0.0206
     35  CE       -34.0050   51.0060   15.8740 C.3    45  LYS45       0.1093
     36  NZ       -34.2550   51.6610   17.1990 N.3    45  LYS45      -0.1314
     37  N        -39.8740   46.3640   36.2500 N.3   135  LEU135     -0.1245
     38  CA       -41.2600   46.8500   36.2830 C.3   135  LEU135      0.1561
     39  C        -41.9770   46.5330   34.9990 C.2   135  LEU135      0.2260
     40  O        -41.4760   46.8230   33.9250 O.2   135  LEU135     -0.2867
     41  CB       -41.2800   48.3640   36.3830 C.3   135  LEU135      0.0270
     42  CG       -40.7680   48.9280   37.7080 C.3   135  LEU135      0.0019
     43  CD1      -40.8410   50.4460   37.6930 C.3   135  LEU135      0.0001
     44  CD2      -41.6520   48.4600   38.8170 C.3   135  LEU135      0.0001
     45  N        -45.1480   47.5190   32.5670 N.3   137  GLN137     -0.1231
     46  CA       -45.9660   48.7270   32.5080 C.3   137  GLN137      0.1698
     47  C        -47.1110   48.4820   31.5160 C.2   137  GLN137      0.2592
     48  O        -47.0760   47.4700   30.7940 O.2   137  GLN137     -0.2718
     49  CB       -45.0770   49.8890   32.0610 C.3   137  GLN137      0.0381
     50  CG       -44.3310   49.4670   30.8820 C.3   137  GLN137      0.0905
     51  CD       -43.7020   50.6200   30.1780 C.2   137  GLN137      0.2608
     52  OE1      -43.2790   51.5940   30.8230 O.2   137  GLN137     -0.2717
     53  NE2      -43.6160   50.5280   28.8320 N.am  137  GLN137     -0.0878
     54  N        -48.0740   49.3980   31.4760 N.am  138  LYS138     -0.1980
     55  CA       -49.2220   49.3610   30.5390 C.3   138  LYS138      0.1596
     56  C        -50.0200   48.1000   30.7690 C.2   138  LYS138      0.2287
     57  O        -50.3950   47.4460   29.7960 O.2   138  LYS138     -0.2864
     58  CB       -48.7670   49.3650   29.1030 C.3   138  LYS138      0.0298
     59  CG       -48.4200   50.7360   28.5730 C.3   138  LYS138      0.0038
     60  CD       -47.3830   50.5570   27.3930 C.3   138  LYS138      0.0206
     61  CE       -47.0230   51.9570   26.7910 C.3   138  LYS138      0.1093
     62  NZ       -45.6770   51.9020   26.0710 N.3   138  LYS138     -0.1314
     63  N        -47.8030   50.6680   36.3770 N.3   176  ARG176     -0.1245
     64  CA       -46.5520   49.9710   36.4860 C.3   176  ARG176      0.1563
     65  C        -46.6090   48.9650   37.5910 C.2   176  ARG176      0.2260
     66  O        -47.3750   49.1950   38.5300 O.2   176  ARG176     -0.2867
     67  CB       -45.3700   50.9710   36.5920 C.3   176  ARG176      0.0307
     68  CG       -45.5430   52.0310   37.6710 C.3   176  ARG176      0.0489
     69  CD       -44.6030   53.2080   37.4650 C.3   176  ARG176      0.2205
     70  NE       -45.0590   54.1200   36.4300 N.pl3 176  ARG176     -0.0865
     71  CZ       -45.7930   55.2100   36.6480 C.cat 176  ARG176      0.5346
     72  NH1      -46.1850   55.5850   37.8640 N.pl3 176  ARG176      0.1354
     73  NH2      -46.1460   55.9520   35.6030 N.pl3 176  ARG176      0.1354
     74  N        -46.3100   45.1790   29.0700 N.3   210  GLU210     -0.1231
     75  CA       -45.0010   45.2900   28.4160 C.3   210  GLU210      0.1699
     76  C        -44.0330   45.0830   29.5350 C.2   210  GLU210      0.2592
     77  O        -44.2720   45.6240   30.6610 O.2   210  GLU210     -0.2718
     78  CB       -44.7460   46.6790   27.9640 C.3   210  GLU210      0.0402
     79  CG       -45.3180   46.9510   26.5870 C.3   210  GLU210      0.1161
     80  CD       -44.9660   48.3620   26.0460 C.2   210  GLU210      0.3649
     81  OE1      -45.9030   48.9690   25.4660 O.co2 210  GLU210     -0.2457
     82  OE2      -43.7830   48.8270   26.2380 O.co2 210  GLU210     -0.2457
     83  N        -42.9920   44.2820   29.2520 N.am  211  VAL211     -0.1966
     84  CA       -41.9180   44.0340   30.1980 C.3   211  VAL211      0.1712
     85  C        -40.5920   44.3100   29.5530 C.2   211  VAL211      0.2458
     86  O        -40.4100   44.1440   28.3590 O.2   211  VAL211     -0.2730
     87  CB       -41.9420   42.6100   30.6800 C.3   211  VAL211      0.0289
     88  CG1      -43.1060   42.4970   31.6950 C.3   211  VAL211      0.0023
     89  CG2      -42.1660   41.6900   29.4620 C.3   211  VAL211      0.0023
     90  N        -39.6400   44.7290   30.3520 N.am  212  PRO212     -0.2727
     91  CA       -38.3350   45.1300   29.8320 C.3   212  PRO212      0.1402
     92  C        -37.4160   43.9010   29.7790 C.2   212  PRO212      0.2269
     93  O        -36.2550   43.9670   30.1930 O.2   212  PRO212     -0.2865
     94  CB       -37.8530   46.1420   30.8850 C.3   212  PRO212      0.0296
     95  CG       -38.5730   45.8020   32.1600 C.3   212  PRO212      0.0237
     96  CD       -39.7390   44.8900   31.8200 C.3   212  PRO212      0.0939
     97  N        -28.7360   38.8280   24.5270 N.3   220  VAL220     -0.1231
     98  CA       -27.7060   39.1880   23.5620 C.3   220  VAL220      0.1692
     99  C        -26.3660   39.0730   24.2720 C.2   220  VAL220      0.2592
    100  O        -26.1210   39.6920   25.2680 O.2   220  VAL220     -0.2718
    101  CB       -27.9570   40.5860   23.0010 C.3   220  VAL220      0.0266
    102  CG1      -26.9110   40.9070   21.9850 C.3   220  VAL220      0.0020
    103  CG2      -29.2260   40.5720   22.2290 C.3   220  VAL220      0.0020
    104  N        -25.4990   38.2120   23.7920 N.am  221  ARG221     -0.1966
    105  CA       -24.1940   38.0390   24.4600 C.3   221  ARG221      0.1729
    106  C        -23.1540   39.0320   23.9110 C.2   221  ARG221      0.2616
    107  O        -22.3270   39.5480   24.6910 O.2   221  ARG221     -0.2715
    108  CB       -23.6650   36.5940   24.3550 C.3   221  ARG221      0.0348
    109  CG       -24.4980   35.4490   25.0310 C.3   221  ARG221      0.0492
    110  CD       -24.2380   35.2330   26.5960 C.3   221  ARG221      0.2205
    111  NE       -25.2530   35.8040   27.5630 N.pl3 221  ARG221     -0.0865
    112  CZ       -25.9610   35.1060   28.4950 C.cat 221  ARG221      0.5346
    113  NH1      -25.8360   33.7760   28.6660 N.pl3 221  ARG221      0.1354
    114  NH2      -26.7910   35.7510   29.3070 N.pl3 221  ARG221      0.1354
    115  N        -23.1610   39.2900   22.6040 N.am  222  TYR222     -0.1960
    116  CA       -22.2070   40.2370   22.0460 C.3   222  TYR222      0.1771
    117  C        -22.5800   40.5410   20.6360 C.2   222  TYR222      0.2619
    118  O        -23.3350   39.7670   20.0250 O.2   222  TYR222     -0.2715
    119  CB       -20.7880   39.6570   22.0600 C.3   222  TYR222      0.0574
    120  CG       -20.6720   38.3190   21.3120 C.ar  222  TYR222     -0.0198
    121  CD1      -20.6900   38.2660   19.9180 C.ar  222  TYR222     -0.0009
    122  CD2      -20.5740   37.0990   21.9980 C.ar  222  TYR222     -0.0009
    123  CE1      -20.5920   37.0210   19.2340 C.ar  222  TYR222      0.0417
    124  CE2      -20.4870   35.8850   21.3180 C.ar  222  TYR222      0.0417
    125  CZ       -20.5000   35.8600   19.9310 C.ar  222  TYR222      0.1957
    126  OH       -20.4120   34.6660   19.2260 O.3   222  TYR222     -0.2866
    127  N        -22.0610   41.6550   20.1190 N.am  223  LEU223     -0.1977
    128  CA       -22.1990   42.0230   18.7310 C.3   223  LEU223      0.1596
    129  C        -20.7920   42.3970   18.2970 C.2   223  LEU223      0.2287
    130  O        -20.3040   43.4610   18.6260 O.2   223  LEU223     -0.2864
    131  CB       -23.2160   43.1540   18.4690 C.3   223  LEU223      0.0297
    132  CG       -23.3120   42.9830   16.9410 C.3   223  LEU223      0.0022
    133  CD1      -24.6380   42.6070   16.3850 C.3   223  LEU223      0.0001
    134  CD2      -22.7260   44.0480   16.1270 C.3   223  LEU223      0.0001
    135  N        -22.1310   50.3170   21.8350 N.3   239  LYS239     -0.1231
    136  CA       -23.1820   49.3180   21.5430 C.3   239  LYS239      0.1693
    137  C        -24.3320   49.3140   22.5550 C.2   239  LYS239      0.2592
    138  O        -24.0900   49.3550   23.7520 O.2   239  LYS239     -0.2718
    139  CB       -22.5630   47.9180   21.5030 C.3   239  LYS239      0.0285
    140  CG       -21.4720   47.6780   20.4630 C.3   239  LYS239      0.0035
    141  CD       -20.5130   46.5370   20.8630 C.3   239  LYS239      0.0206
    142  CE       -19.5490   46.0770   19.7020 C.3   239  LYS239      0.1093
    143  NZ       -18.4530   45.1940   20.2360 N.3   239  LYS239     -0.1314
    144  N        -25.5830   49.2130   22.1110 N.am  240  TRP240     -0.1962
    145  CA       -26.6700   49.2720   23.0860 C.3   240  TRP240      0.1771
    146  C        -27.5990   48.1410   22.7840 C.2   240  TRP240      0.2619
    147  O        -27.7190   47.8210   21.5820 O.2   240  TRP240     -0.2715
    148  CB       -27.4850   50.5160   22.8550 C.3   240  TRP240      0.0590
    149  CG       -26.6590   51.7180   22.8840 C.ar  240  TRP240      0.0006
    150  CD1      -26.0210   52.3350   21.8120 C.ar  240  TRP240      0.0946
    151  CD2      -26.3600   52.4980   24.0420 C.ar  240  TRP240      0.0152
    152  NE1      -25.3600   53.4460   22.2650 N.ar  240  TRP240     -0.2442
    153  CE2      -25.5340   53.5690   23.6170 C.ar  240  TRP240      0.0810
    154  CE3      -26.7040   52.3820   25.4110 C.ar  240  TRP240      0.0012
    155  CZ2      -25.0160   54.5130   24.4990 C.ar  240  TRP240      0.0191
    156  CZ3      -26.1970   53.3300   26.3170 C.ar  240  TRP240      0.0001
    157  CH2      -25.3590   54.3950   25.8420 C.ar  240  TRP240      0.0015
    158  N        -28.2860   47.5820   23.8020 N.am  241  VAL241     -0.1963
    159  CA       -29.3890   46.6260   23.5750 C.3   241  VAL241      0.1727
    160  C        -30.6320   47.0800   24.3310 C.2   241  VAL241      0.2616
    161  O        -30.5450   47.6760   25.4690 O.2   241  VAL241     -0.2715
    162  CB       -29.2160   45.2500   24.2570 C.3   241  VAL241      0.0290
    163  CG1      -29.2780   44.1250   23.3230 C.3   241  VAL241      0.0023
    164  CG2      -28.0730   45.1780   25.2660 C.3   241  VAL241      0.0023
    165  N        -31.7950   46.7600   23.7720 N.am  242  ARG242     -0.1963
    166  CA       -33.0250   46.9330   24.5590 C.3   242  ARG242      0.1729
    167  C        -33.9370   45.7660   24.3080 C.2   242  ARG242      0.2616
    168  O        -34.0000   45.2320   23.1350 O.2   242  ARG242     -0.2715
    169  CB       -33.7600   48.3020   24.3160 C.3   242  ARG242      0.0348
    170  CG       -34.3770   48.5370   22.9380 C.3   242  ARG242      0.0492
    171  CD       -35.1980   49.8510   22.8850 C.3   242  ARG242      0.2205
    172  NE       -35.5110   50.0930   21.4800 N.pl3 242  ARG242     -0.0865
    173  CZ       -36.3390   51.0420   21.0740 C.cat 242  ARG242      0.5346
    174  NH1      -36.9350   51.8910   21.9430 N.pl3 242  ARG242      0.1354
    175  NH2      -36.5390   51.1670   19.7790 N.pl3 242  ARG242      0.1354
    176  N        -34.6240   45.3520   25.3980 N.am  243  TYR243     -0.1960
    177  CA       -35.5650   44.1960   25.2920 C.3   243  TYR243      0.1771
    178  C        -36.9900   44.7270   25.4640 C.2   243  TYR243      0.2619
    179  O        -37.2640   45.4160   26.4500 O.2   243  TYR243     -0.2715
    180  CB       -35.2390   43.2130   26.3940 C.3   243  TYR243      0.0574
    181  CG       -33.8900   42.5920   26.2610 C.ar  243  TYR243     -0.0198
    182  CD1      -33.6860   41.4370   25.4960 C.ar  243  TYR243     -0.0009
    183  CD2      -32.7990   43.0990   26.9660 C.ar  243  TYR243     -0.0009
    184  CE1      -32.3720   40.8560   25.3610 C.ar  243  TYR243      0.0417
    185  CE2      -31.5140   42.5200   26.8630 C.ar  243  TYR243      0.0417
    186  CZ       -31.2980   41.3940   26.0670 C.ar  243  TYR243      0.1957
    187  OH       -30.0110   40.8430   25.9930 O.3   243  TYR243     -0.2866
    188  N        -37.8870   44.4700   24.5280 N.am  244  ILE244     -0.1977
    189  CA       -39.3120   44.8740   24.7240 C.3   244  ILE244      0.1596
    190  C        -40.2210   43.6740   24.5730 C.2   244  ILE244      0.2287
    191  O        -40.3610   43.1590   23.4650 O.2   244  ILE244     -0.2864
    192  CB       -39.7670   45.9560   23.7440 C.3   244  ILE244      0.0276
    193  CG1      -38.8570   47.2000   23.8680 C.3   244  ILE244      0.0022
    194  CG2      -41.2120   46.3730   24.0790 C.3   244  ILE244      0.0022
    195  CD1      -38.8700   48.0590   22.6350 C.3   244  ILE244      0.0001
@<TRIPOS>BOND
     1    29    30    1
     2    29    32    1
     3    29    28    1
     4    30    31    2
     5    32    33    1
     6    33    34    1
     7    34    35    1
     8    35    36    1
     9   134   132    1
    10   133   132    1
    11   132   131    1
    12     4     3    2
    13    19    17    1
    14     1     2    1
    15     7     9   ar
    16     7     6   ar
    17     9    11   ar
    18     3     2    1
    19     3    12   am
    20   129   130    2
    21   129   128    1
    22    17    18    1
    23    17    16    1
    24   131   128    1
    25    23    22    1
    26    27    25   ar
    27     5     2    1
    28     5     6    1
    29   128   127    1
    30    24    25    1
    31    24    21    1
    32     6     8   ar
    33    13    12    1
    34    13    16    1
    35    13    14    1
    36    25    26   ar
    37    20    21    1
    38    20    14   am
    39   126   125    1
    40   123   121   ar
    41   123   125   ar
    42    11    10   ar
    43    22    21    1
    44   142   143    1
    45   142   141    1
    46   175   173    1
    47    14    15    2
    48   121   120   ar
    49   125   124   ar
    50   118   117    2
    51   127   117   am
    52     8    10   ar
    53   140   141    1
    54   140   139    1
    55   117   116    1
    56   173   172    2
    57   173   174    1
    58   120   122   ar
    59   120   119    1
    60   124   122   ar
    61   172   171    1
    62   139   136    1
    63   136   135    1
    64   136   137    1
    65   147   146    2
    66   150   152   ar
    67   150   149   ar
    68   102   101    1
    69   116   119    1
    70   116   115    1
    71   144   137   am
    72   144   145    1
    73   103   101    1
    74   152   153   ar
    75   137   138    2
    76   115   106   am
    77   195   193    1
    78   146   145    1
    79   146   158   am
    80   148   149    1
    81   148   145    1
    82   149   151   ar
    83   171   170    1
    84   170   169    1
    85   101    98    1
    86   168   167    2
    87   163   162    1
    88   191   190    2
    89    98    99    1
    90    98    97    1
    91   159   158    1
    92   159   162    1
    93   159   160    1
    94   153   151   ar
    95   153   155   ar
    96   192   193    1
    97   192   194    1
    98   192   189    1
    99   165   160   am
   100   165   166    1
   101   104    99   am
   102   104   105    1
   103   106   105    1
   104   106   107    2
   105   151   154   ar
   106   162   164    1
   107    99   100    2
   108   167   166    1
   109   167   176   am
   110   169   166    1
   111   160   161    2
   112   108   105    1
   113   108   109    1
   114   155   157   ar
   115   188   189    1
   116   188   178   am
   117   190   189    1
   118   109   110    1
   119   177   176    1
   120   177   178    1
   121   177   180    1
   122   184   182   ar
   123   184   186   ar
   124   154   156   ar
   125   178   179    2
   126    81    80   ar
   127   182   181   ar
   128   157   156   ar
   129   187   186    1
   130    80    82   ar
   131    80    79    1
   132   186   185   ar
   133    62    61    1
   134   181   180    1
   135   181   183   ar
   136    79    78    1
   137   110   111    1
   138    61    60    1
   139   185   183   ar
   140    60    59    1
   141   111   112    2
   142    78    75    1
   143    86    85    2
   144    75    74    1
   145    75    76    1
   146   112   113    1
   147   112   114    1
   148    59    58    1
   149    53    51   am
   150    58    55    1
   151    83    76   am
   152    83    84    1
   153    89    87    1
   154    76    77    2
   155    85    84    1
   156    85    90   am
   157    92    91    1
   158    92    93    2
   159    57    56    2
   160    91    90    1
   161    91    94    1
   162    51    52    2
   163    51    50    1
   164    84    87    1
   165    90    96    1
   166    55    56    1
   167    55    54    1
   168    87    88    1
   169    48    47    2
   170    50    49    1
   171    94    95    1
   172    54    47   am
   173    47    46    1
   174    96    95    1
   175    49    46    1
   176    46    45    1
   177    40    39    2
   178    39    38    1
   179    73    71    1
   180    37    38    1
   181    38    41    1
   182    63    64    1
   183    41    42    1
   184    70    71    2
   185    70    69    1
   186    64    67    1
   187    64    65    1
   188    67    68    1
   189    71    72    1
   190    69    68    1
   191    65    66    2
   192    43    42    1
   193    42    44    1
