@<TRIPOS>MOLECULE
tmp/2prcB07.pdb
 158 151 0 0 0
SMALL
GASTEIGER

@<TRIPOS>ATOM
      1  N        122.5970   62.5570    4.2030 N.3   182  VAL182     -0.1245
      2  CA       123.3820   63.2680    3.1780 C.3   182  VAL182      0.1561
      3  C        123.6610   64.7100    3.5490 C.2   182  VAL182      0.2260
      4  O        124.6790   65.2580    3.1480 O.2   182  VAL182     -0.2867
      5  CB       122.7270   63.3530    1.7820 C.3   182  VAL182      0.0252
      6  CG1      123.8250   63.5710    0.7510 C.3   182  VAL182      0.0019
      7  CG2      121.9680   62.1080    1.4590 C.3   182  VAL182      0.0019
      8  N        126.3890   64.9390    6.1840 N.3   185  MET185     -0.1230
      9  CA       127.6630   64.6600    5.5150 C.3   185  MET185      0.1702
     10  C        128.1680   65.8390    4.6640 C.2   185  MET185      0.2592
     11  O        129.3230   66.2340    4.7520 O.2   185  MET185     -0.2718
     12  CB       127.5170   63.4150    4.6490 C.3   185  MET185      0.0401
     13  CG       128.7910   62.9770    4.0000 C.3   185  MET185      0.0596
     14  SD       128.5840   62.9020    2.2690 S.3   185  MET185     -0.1393
     15  CE       129.5900   61.4960    1.8200 C.3   185  MET185      0.0692
     16  N        127.2780   66.4490    3.8900 N.am  186  ALA186     -0.1980
     17  CA       127.6410   67.5840    3.0560 C.3   186  ALA186      0.1597
     18  C        128.0570   68.8120    3.8730 C.2   186  ALA186      0.2287
     19  O        128.9060   69.5560    3.4570 O.2   186  ALA186     -0.2864
     20  CB       126.4880   67.9330    2.1250 C.3   186  ALA186      0.0319
     21  N        131.4160   68.2040    4.8920 N.3   189  LEU189     -0.1231
     22  CA       132.3100   68.3530    3.7720 C.3   189  LEU189      0.1693
     23  C        132.5390   69.8260    3.4840 C.2   189  LEU189      0.2592
     24  O        133.6850   70.2340    3.2620 O.2   189  LEU189     -0.2718
     25  CB       131.7570   67.6580    2.5300 C.3   189  LEU189      0.0284
     26  CG       131.9360   66.1400    2.5270 C.3   189  LEU189      0.0019
     27  CD1      131.5490   65.5650    1.1890 C.3   189  LEU189      0.0001
     28  CD2      133.3710   65.8070    2.8700 C.3   189  LEU189      0.0001
     29  N        131.4610   70.6210    3.4960 N.am  190  HIS190     -0.1976
     30  CA       131.5220   72.0150    3.0520 C.3   190  HIS190      0.1656
     31  C        132.2780   72.9070    4.0450 C.2   190  HIS190      0.2291
     32  O        133.1570   73.6730    3.6560 O.2   190  HIS190     -0.2864
     33  CB       130.1250   72.5910    2.8030 C.3   190  HIS190      0.0771
     34  CG       130.1500   74.0200    2.3510 C.ar  190  HIS190      0.0820
     35  ND1      130.9210   74.4800    1.3100 N.ar  190  HIS190     -0.2267
     36  CD2      129.6300   75.1310    2.9340 C.ar  190  HIS190      0.1154
     37  CE1      130.8470   75.8130    1.2920 C.ar  190  HIS190      0.1986
     38  NE2      130.0710   76.2660    2.2700 N.ar  190  HIS190     -0.2212
     39  N        136.0860   71.8830    3.7440 N.3   193  LEU193     -0.1231
     40  CA       136.7530   72.3960    2.5570 C.3   193  LEU193      0.1693
     41  C        137.1160   73.8550    2.7320 C.2   193  LEU193      0.2591
     42  O        138.2660   74.2200    2.5160 O.2   193  LEU193     -0.2718
     43  CB       135.8710   72.2360    1.3130 C.3   193  LEU193      0.0284
     44  CG       136.5240   72.6600   -0.0060 C.3   193  LEU193      0.0019
     45  CD1      137.7270   71.7950   -0.3430 C.3   193  LEU193      0.0001
     46  CD2      135.4910   72.5680   -1.0840 C.3   193  LEU193      0.0001
     47  N        136.1720   74.6790    3.1840 N.am  194  ILE194     -0.1980
     48  CA       136.4370   76.1110    3.3270 C.3   194  ILE194      0.1595
     49  C        137.4860   76.3790    4.3970 C.2   194  ILE194      0.2287
     50  O        138.4280   77.1330    4.1750 O.2   194  ILE194     -0.2864
     51  CB       135.1700   76.9000    3.6840 C.3   194  ILE194      0.0276
     52  CG1      134.0920   76.6910    2.6280 C.3   194  ILE194      0.0022
     53  CG2      135.4960   78.3630    3.7850 C.3   194  ILE194      0.0022
     54  CD1      134.2850   77.4890    1.3640 C.3   194  ILE194      0.0001
     55  N        139.7820   74.3170   -4.4680 N.3   212  GLU212     -0.1231
     56  CA       138.5380   73.7170   -3.9550 C.3   212  GLU212      0.1699
     57  C        138.0470   72.7570   -5.0090 C.2   212  GLU212      0.2592
     58  O        137.6510   71.6350   -4.7110 O.2   212  GLU212     -0.2718
     59  CB       137.4410   74.7650   -3.7430 C.3   212  GLU212      0.0402
     60  CG       137.6440   75.7430   -2.6010 C.3   212  GLU212      0.1161
     61  CD       136.5440   76.8040   -2.5180 C.2   212  GLU212      0.3649
     62  OE1      136.1580   77.3780   -3.5530 O.co2 212  GLU212     -0.2457
     63  OE2      136.0910   77.1060   -1.4030 O.co2 212  GLU212     -0.2457
     64  N        138.0680   73.2270   -6.2490 N.am  213  ASN213     -0.1974
     65  CA       137.6060   72.4310   -7.3600 C.3   213  ASN213      0.1688
     66  C        138.4880   71.2080   -7.5500 C.2   213  ASN213      0.2292
     67  O        137.9900   70.0990   -7.7510 O.2   213  ASN213     -0.2864
     68  CB       137.5920   73.2700   -8.6310 C.3   213  ASN213      0.1181
     69  CG       136.3240   74.0990   -8.7750 C.2   213  ASN213      0.2629
     70  OD1      135.3200   73.8800   -8.0790 O.2   213  ASN213     -0.2716
     71  ND2      136.3520   75.0440   -9.7070 N.am  213  ASN213     -0.0877
     72  N        138.1190   68.0300   -4.8520 N.3   216  PHE216     -0.1241
     73  CA       137.0170   67.0880   -5.0360 C.3   216  PHE216      0.1605
     74  C        137.0290   66.3420   -6.3610 C.2   216  PHE216      0.2264
     75  O        136.6460   65.1680   -6.4230 O.2   216  PHE216     -0.2867
     76  CB       135.6780   67.7780   -4.8220 C.3   216  PHE216      0.0534
     77  CG       135.2490   67.7600   -3.3970 C.ar  216  PHE216     -0.0203
     78  CD1      135.0300   66.5410   -2.7570 C.ar  216  PHE216     -0.0042
     79  CD2      135.2980   68.9290   -2.6250 C.ar  216  PHE216     -0.0042
     80  CE1      134.8790   66.4720   -1.3670 C.ar  216  PHE216     -0.0003
     81  CE2      135.1470   68.8720   -1.2320 C.ar  216  PHE216     -0.0003
     82  CZ       134.9380   67.6370   -0.6050 C.ar  216  PHE216     -0.0000
     83  N        136.6540   62.5400   -5.8060 N.3   220  VAL220     -0.1245
     84  CA       135.4420   61.8670   -6.2910 C.3   220  VAL220      0.1561
     85  C        135.1380   62.0820   -7.7770 C.2   220  VAL220      0.2260
     86  O        134.1050   61.6540   -8.2510 O.2   220  VAL220     -0.2867
     87  CB       134.1660   62.2840   -5.4710 C.3   220  VAL220      0.0252
     88  CG1      134.4780   62.3550   -3.9910 C.3   220  VAL220      0.0019
     89  CG2      133.6390   63.6180   -5.9420 C.3   220  VAL220      0.0019
     90  N        134.2740   64.7380   -9.3120 N.3   222  TYR222     -0.1227
     91  CA       133.3890   65.8520   -9.5860 C.3   222  TYR222      0.1736
     92  C        133.4610   66.9450   -8.5160 C.2   222  TYR222      0.2596
     93  O        133.7230   66.6700   -7.3400 O.2   222  TYR222     -0.2718
     94  CB       131.9490   65.3510   -9.7330 C.3   222  TYR222      0.0548
     95  CG       130.9590   66.4240  -10.1420 C.ar  222  TYR222     -0.0200
     96  CD1      131.0880   67.0920  -11.3650 C.ar  222  TYR222     -0.0009
     97  CD2      129.9470   66.8330   -9.2750 C.ar  222  TYR222     -0.0009
     98  CE1      130.2420   68.1530  -11.7140 C.ar  222  TYR222      0.0417
     99  CE2      129.0990   67.8990   -9.6110 C.ar  222  TYR222      0.0417
    100  CZ       129.2590   68.5510  -10.8310 C.ar  222  TYR222      0.1957
    101  OH       128.4470   69.6070  -11.1490 O.3   222  TYR222     -0.2866
    102  N        133.3120   68.1920   -8.9530 N.am  223  SER223     -0.1938
    103  CA       133.1470   69.3140   -8.0470 C.3   223  SER223      0.2055
    104  C        132.0040   70.2010   -8.5460 C.2   223  SER223      0.2643
    105  O        132.0490   70.7280   -9.6600 O.2   223  SER223     -0.2714
    106  CB       134.4410   70.1200   -7.9640 C.3   223  SER223      0.2130
    107  OG       134.2440   71.3770   -7.3490 O.3   223  SER223     -0.2179
    108  N        130.9730   70.3360   -7.7210 N.am  224  ILE224     -0.1963
    109  CA       129.7810   71.0660   -8.0960 C.3   224  ILE224      0.1727
    110  C        130.0240   72.5860   -8.1590 C.2   224  ILE224      0.2617
    111  O        129.3570   73.3030   -8.9180 O.2   224  ILE224     -0.2715
    112  CB       128.5980   70.7100   -7.1350 C.3   224  ILE224      0.0290
    113  CG1      127.2690   71.1450   -7.7570 C.3   224  ILE224      0.0022
    114  CG2      128.7890   71.3470   -5.7600 C.3   224  ILE224      0.0023
    115  CD1      126.0780   70.7400   -6.9630 C.3   224  ILE224      0.0001
    116  N        131.0060   73.0680   -7.4030 N.am  225  GLY225     -0.1940
    117  CA       131.3310   74.4790   -7.4480 C.3   225  GLY225      0.2014
    118  C        130.7780   75.2640   -6.2780 C.2   225  GLY225      0.2638
    119  O        129.8840   74.7880   -5.5760 O.2   225  GLY225     -0.2714
    120  N        131.2510   76.4970   -6.1080 N.am  226  ALA226     -0.1977
    121  CA       131.0160   77.2250   -4.8770 C.3   226  ALA226      0.1597
    122  C        129.5760   77.6950   -4.7000 C.2   226  ALA226      0.2287
    123  O        128.9860   77.4560   -3.6490 O.2   226  ALA226     -0.2864
    124  CB       131.9570   78.3760   -4.7690 C.3   226  ALA226      0.0319
    125  N        127.1030   74.4750   -4.2720 N.3   229  ILE229     -0.1231
    126  CA       127.0690   73.6600   -3.0520 C.3   229  ILE229      0.1692
    127  C        126.1520   74.2880   -2.0050 C.2   229  ILE229      0.2592
    128  O        125.5450   73.5780   -1.2000 O.2   229  ILE229     -0.2718
    129  CB       128.4550   73.4490   -2.4370 C.3   229  ILE229      0.0266
    130  CG1      128.3710   72.4210   -1.3070 C.3   229  ILE229      0.0019
    131  CG2      128.9640   74.7390   -1.8300 C.3   229  ILE229      0.0020
    132  CD1      127.9610   71.0280   -1.7320 C.3   229  ILE229      0.0001
    133  N        125.9410   75.5970   -2.1020 N.am  230  HIS230     -0.1976
    134  CA       125.0110   76.2860   -1.2100 C.3   230  HIS230      0.1656
    135  C        123.5590   76.0470   -1.6100 C.2   230  HIS230      0.2291
    136  O        122.7090   75.7730   -0.7630 O.2   230  HIS230     -0.2864
    137  CB       125.3390   77.7670   -1.1770 C.3   230  HIS230      0.0771
    138  CG       126.6610   78.0560   -0.5560 C.ar  230  HIS230      0.0820
    139  ND1      127.8480   78.0160   -1.2390 N.ar  230  HIS230     -0.2267
    140  CD2      127.0020   78.1730    0.7510 C.ar  230  HIS230      0.1154
    141  CE1      128.8430   78.0920   -0.3500 C.ar  230  HIS230      0.1986
    142  NE2      128.3760   78.1930    0.8850 N.ar  230  HIS230     -0.2212
    143  N        122.7580   73.2380   -3.3380 N.3   232  LEU232     -0.1245
    144  CA       122.5470   71.8460   -3.0020 C.3   232  LEU232      0.1561
    145  C        122.2000   71.7160   -1.5160 C.2   232  LEU232      0.2260
    146  O        121.2540   71.0230   -1.1530 O.2   232  LEU232     -0.2867
    147  CB       123.7800   71.0310   -3.3380 C.3   232  LEU232      0.0270
    148  CG       123.5540   69.5240   -3.3360 C.3   232  LEU232      0.0019
    149  CD1      122.5380   69.1300   -4.3800 C.3   232  LEU232      0.0001
    150  CD2      124.8700   68.8320   -3.6090 C.3   232  LEU232      0.0001
    151  N        119.0760   69.6860   -0.1030 N.3   236  LEU236     -0.1245
    152  CA       119.1340   68.4670    0.7040 C.3   236  LEU236      0.1561
    153  C        118.4800   68.7000    2.0490 C.2   236  LEU236      0.2260
    154  O        117.8810   67.7990    2.6080 O.2   236  LEU236     -0.2867
    155  CB       120.5670   68.0300    0.9570 C.3   236  LEU236      0.0270
    156  CG       121.3980   67.7910   -0.2720 C.3   236  LEU236      0.0019
    157  CD1      122.8530   67.5260    0.1110 C.3   236  LEU236      0.0001
    158  CD2      120.7770   66.6320   -1.0150 C.3   236  LEU236      0.0001
@<TRIPOS>BOND
     1    98    96   ar
     2    98   100   ar
     3    96    95   ar
     4   101   100    1
     5   100    99   ar
     6    95    94    1
     7    95    97   ar
     8    94    91    1
     9    71    69   am
    10   105   104    2
    11    99    97   ar
    12    91    90    1
    13    91    92    1
    14   102    92   am
    15   102   103    1
    16   111   110    2
    17    69    68    1
    18    69    70    2
    19    68    65    1
    20   104   103    1
    21   104   108   am
    22    92    93    2
    23    86    85    2
    24   110   109    1
    25   110   116   am
    26   109   108    1
    27   109   112    1
    28   103   106    1
    29   106   107    1
    30    85    84    1
    31   113   112    1
    32   113   115    1
    33    67    66    2
    34    66    65    1
    35   117   116    1
    36   117   118    1
    37    65    64    1
    38   112   114    1
    39    75    74    2
    40    74    73    1
    41    84    83    1
    42    84    87    1
    43   118   120   am
    44   118   119    2
    45    64    57   am
    46   120   121    1
    47    89    87    1
    48    87    88    1
    49    73    72    1
    50    73    76    1
    51    57    58    2
    52    57    56    1
    53   121   124    1
    54   121   122    1
    55    76    77    1
    56   122   123    2
    57    55    56    1
    58   149   148    1
    59   125   126    1
    60    56    59    1
    61    59    60    1
    62   150   148    1
    63    62    61   ar
    64    77    78   ar
    65    77    79   ar
    66   147   148    1
    67   147   144    1
    68   143   144    1
    69   126   129    1
    70   126   127    1
    71   144   145    1
    72    78    80   ar
    73    79    81   ar
    74    60    61    1
    75    61    63   ar
    76   129   131    1
    77   129   130    1
    78   133   127   am
    79   133   134    1
    80   127   128    2
    81   132   130    1
    82   135   134    1
    83   135   136    2
    84   145   146    2
    85    80    82   ar
    86   139   138   ar
    87   139   141   ar
    88    81    82   ar
    89   134   137    1
    90   137   138    1
    91    46    44    1
    92   158   156    1
    93   138   140   ar
    94   141   142   ar
    95    45    44    1
    96   156   157    1
    97   156   155    1
    98   151   152    1
    99    44    43    1
   100   152   155    1
   101   152   153    1
   102     6     5    1
   103   140   142   ar
   104    27    26    1
   105    37    35   ar
   106    37    38   ar
   107    35    34   ar
   108    43    40    1
   109    54    52    1
   110     7     5    1
   111     5     2    1
   112    15    14    1
   113   153   154    2
   114    20    17    1
   115    14    13    1
   116    38    36   ar
   117    34    33    1
   118    34    36   ar
   119    42    41    2
   120    26    25    1
   121    26    28    1
   122    25    22    1
   123    40    41    1
   124    40    39    1
   125    52    51    1
   126    41    47   am
   127    33    30    1
   128    30    29    1
   129    30    31    1
   130    17    18    1
   131    17    16    1
   132     4     3    2
   133     2     3    1
   134     2     1    1
   135    47    48    1
   136    24    23    2
   137    48    51    1
   138    48    49    1
   139    19    18    2
   140    23    29   am
   141    23    22    1
   142    32    31    2
   143    51    53    1
   144    22    21    1
   145    16    10   am
   146    13    12    1
   147    50    49    2
   148    12     9    1
   149    10    11    2
   150    10     9    1
   151     9     8    1
