@<TRIPOS>MOLECULE
tmp/2prhA03.pdb
 124 118 0 0 0
SMALL
GASTEIGER

@<TRIPOS>ATOM
      1  N         60.2450   51.6250   -9.9930 N.3     1  MET1       -0.1230
      2  CA        60.1020   51.2630   -8.5450 C.3     1  MET1        0.1702
      3  C         59.8290   52.5300   -7.7260 C.2     1  MET1        0.2592
      4  O         58.8550   53.2420   -7.9900 O.2     1  MET1       -0.2718
      5  CB        61.3720   50.5480   -8.0430 C.3     1  MET1        0.0401
      6  CG        61.0710   49.2710   -7.2310 C.3     1  MET1        0.0596
      7  SD        62.5870   49.0830   -6.0610 S.3     1  MET1       -0.1393
      8  CE        62.5530   47.1660   -6.1150 C.3     1  MET1        0.0692
      9  N         60.6830   52.7880   -6.7330 N.am    2  ALA2       -0.1966
     10  CA        60.6960   54.0380   -5.9500 C.3     2  ALA2        0.1728
     11  C         59.3840   54.4510   -5.2350 C.2     2  ALA2        0.2616
     12  O         58.5270   53.6090   -4.9440 O.2     2  ALA2       -0.2715
     13  CB        61.2750   55.2020   -6.7920 C.3     2  ALA2        0.0334
     14  N         59.2500   55.7530   -4.9740 N.am    3  THR3       -0.1951
     15  CA        58.2830   56.2980   -4.0190 C.3     3  THR3        0.1897
     16  C         57.0450   56.9260   -4.6760 C.2     3  THR3        0.2313
     17  O         57.0770   57.3560   -5.8380 O.2     3  THR3       -0.2863
     18  CB        58.9760   57.3490   -3.0880 C.3     3  THR3        0.1794
     19  OG1       60.2260   56.8270   -2.6110 O.3     3  THR3       -0.2208
     20  CG2       58.1060   57.7260   -1.8880 C.3     3  THR3        0.0378
     21  N         51.0520   54.5930   -7.1290 N.3     9  TYR9       -0.1241
     22  CA        50.9000   53.2080   -6.6870 C.3     9  TYR9        0.1605
     23  C         49.6720   52.5370   -7.2790 C.2     9  TYR9        0.2264
     24  O         49.7480   51.4130   -7.7830 O.2     9  TYR9       -0.2867
     25  CB        50.8910   53.1100   -5.1590 C.3     9  TYR9        0.0534
     26  CG        52.2710   52.9690   -4.5660 C.ar    9  TYR9       -0.0201
     27  CD1       53.1790   54.0310   -4.6090 C.ar    9  TYR9       -0.0009
     28  CD2       52.6720   51.7790   -3.9700 C.ar    9  TYR9       -0.0009
     29  CE1       54.4470   53.9130   -4.0760 C.ar    9  TYR9        0.0417
     30  CE2       53.9370   51.6460   -3.4230 C.ar    9  TYR9        0.0417
     31  CZ        54.8210   52.7170   -3.4800 C.ar    9  TYR9        0.1957
     32  OH        56.0900   52.5960   -2.9540 O.3     9  TYR9       -0.2866
     33  N         52.3060   51.3530  -10.2240 N.3    13  LEU13      -0.1245
     34  CA        53.1530   50.3610   -9.5570 C.3    13  LEU13       0.1561
     35  C         52.4260   49.0540   -9.2300 C.2    13  LEU13       0.2260
     36  O         52.8980   47.9760   -9.5980 O.2    13  LEU13      -0.2867
     37  CB        53.8150   50.9330   -8.2890 C.3    13  LEU13       0.0270
     38  CG        54.9540   50.1000   -7.6740 C.3    13  LEU13       0.0019
     39  CD1       55.8760   50.9720   -6.8530 C.3    13  LEU13       0.0001
     40  CD2       54.4440   48.9560   -6.8110 C.3    13  LEU13       0.0001
     41  N         52.8910   45.2660  -10.8960 N.3    17  LEU17      -0.1245
     42  CA        53.3080   44.1700  -10.0280 C.3    17  LEU17       0.1561
     43  C         52.3360   42.9750  -10.1260 C.2    17  LEU17       0.2260
     44  O         52.7690   41.8270  -10.1750 O.2    17  LEU17      -0.2867
     45  CB        53.4000   44.6750   -8.5890 C.3    17  LEU17       0.0270
     46  CG        54.5010   44.2110   -7.6390 C.3    17  LEU17       0.0019
     47  CD1       55.8960   44.3530   -8.2520 C.3    17  LEU17       0.0001
     48  CD2       54.4050   45.0410   -6.3600 C.3    17  LEU17       0.0001
     49  N         53.5420   37.8000   -5.0130 N.3    26  ALA26      -0.1245
     50  CA        53.4790   39.2210   -4.6580 C.3    26  ALA26       0.1562
     51  C         53.2720   39.4500   -3.1530 C.2    26  ALA26       0.2260
     52  O         53.8300   40.3910   -2.5890 O.2    26  ALA26      -0.2867
     53  CB        52.4080   39.9270   -5.4690 C.3    26  ALA26       0.0290
     54  N         56.6400   38.7570   -1.4590 N.3    29  LEU29      -0.1231
     55  CA        57.5030   39.8960   -1.7560 C.3    29  LEU29       0.1693
     56  C         57.1250   41.1280   -0.9350 C.2    29  LEU29       0.2591
     57  O         58.0000   41.8340   -0.4290 O.2    29  LEU29      -0.2718
     58  CB        57.4510   40.2180   -3.2490 C.3    29  LEU29       0.0284
     59  CG        58.3220   41.3490   -3.7920 C.3    29  LEU29       0.0019
     60  CD1       59.8130   40.9480   -3.8470 C.3    29  LEU29       0.0001
     61  CD2       57.8050   41.7650   -5.1740 C.3    29  LEU29       0.0001
     62  N         55.8200   41.3820   -0.8210 N.am   30  ALA30      -0.1980
     63  CA        55.2880   42.4340    0.0390 C.3    30  ALA30       0.1597
     64  C         55.7670   42.2680    1.4780 C.2    30  ALA30       0.2287
     65  O         56.2450   43.2220    2.0810 O.2    30  ALA30      -0.2864
     66  CB        53.7590   42.4560   -0.0160 C.3    30  ALA30       0.0319
     67  N         59.6150   43.0820    1.6220 N.3    33  PHE33      -0.1241
     68  CA        59.9270   44.5080    1.5190 C.3    33  PHE33       0.1605
     69  C         59.5500   45.2650    2.7760 C.2    33  PHE33       0.2264
     70  O         60.3020   46.1220    3.2400 O.2    33  PHE33      -0.2867
     71  CB        59.2220   45.1310    0.3020 C.3    33  PHE33       0.0534
     72  CG        60.0840   45.1970   -0.9240 C.ar   33  PHE33      -0.0203
     73  CD1       60.4700   44.0370   -1.5850 C.ar   33  PHE33      -0.0042
     74  CD2       60.5200   46.4260   -1.4160 C.ar   33  PHE33      -0.0042
     75  CE1       61.2830   44.0930   -2.7250 C.ar   33  PHE33      -0.0003
     76  CE2       61.3360   46.5020   -2.5570 C.ar   33  PHE33      -0.0003
     77  CZ        61.7120   45.3290   -3.2140 C.ar   33  PHE33      -0.0000
     78  N         61.7220   47.3780    5.8080 N.3    37  GLY37      -0.1210
     79  CA        61.3890   48.7990    5.8740 C.3    37  GLY37       0.1956
     80  C         61.4620   49.5480    4.5490 C.2    37  GLY37       0.2612
     81  O         61.5930   50.7780    4.5320 O.2    37  GLY37      -0.2717
     82  N         61.3730   48.8190    3.4380 N.am   38  LEU38      -0.1965
     83  CA        61.4300   49.4380    2.1100 C.3    38  LEU38       0.1728
     84  C         60.0510   49.9930    1.7240 C.2    38  LEU38       0.2616
     85  O         59.3430   49.4380    0.8760 O.2    38  LEU38      -0.2715
     86  CB        61.9840   48.4560    1.0650 C.3    38  LEU38       0.0311
     87  CG        63.4730   48.0840    1.1610 C.3    38  LEU38       0.0022
     88  CD1       63.7230   46.6840    0.6110 C.3    38  LEU38       0.0001
     89  CD2       64.3750   49.1090    0.4590 C.3    38  LEU38       0.0001
     90  N         59.6850   51.0910    2.3800 N.am   39  LEU39      -0.1964
     91  CA        58.3660   51.6960    2.2510 C.3    39  LEU39       0.1713
     92  C         58.4630   53.1330    1.7490 C.2    39  LEU39       0.2458
     93  O         59.4760   53.8030    1.9770 O.2    39  LEU39      -0.2730
     94  CB        57.6300   51.6920    3.6060 C.3    39  LEU39       0.0310
     95  CG        57.0360   50.4360    4.2600 C.3    39  LEU39       0.0022
     96  CD1       56.8600   49.3080    3.2680 C.3    39  LEU39       0.0001
     97  CD2       57.8680   49.9650    5.4230 C.3    39  LEU39       0.0001
     98  N         57.4110   53.6100    1.0530 N.am   40  PRO40      -0.2716
     99  CA        57.2730   55.0430    0.7980 C.3    40  PRO40       0.1536
    100  C         56.8360   55.7710    2.0730 C.2    40  PRO40       0.2598
    101  O         56.5040   55.1130    3.0640 O.2    40  PRO40      -0.2715
    102  CB        56.1570   55.0960   -0.2480 C.3    40  PRO40       0.0310
    103  CG        55.3340   53.8920    0.0220 C.3    40  PRO40       0.0237
    104  CD        56.3110   52.8360    0.4440 C.3    40  PRO40       0.0939
    105  N         56.8550   57.1050    2.0520 N.am   41  ARG41      -0.1978
    106  CA        56.2400   57.9270    3.1120 C.3    41  ARG41       0.1597
    107  C         56.6790   57.5240    4.5610 C.2    41  ARG41       0.2287
    108  O         57.8390   57.1510    4.7470 O.2    41  ARG41      -0.2864
    109  CB        54.7130   57.9440    2.9240 C.3    41  ARG41       0.0334
    110  CG        54.3220   58.6600    1.6430 C.3    41  ARG41       0.0492
    111  CD        52.8210   58.9830    1.5990 C.3    41  ARG41       0.2205
    112  NE        52.1110   57.7770    2.0210 N.pl3  41  ARG41      -0.0865
    113  CZ        51.1440   57.7500    2.9510 C.cat  41  ARG41       0.5346
    114  NH1       50.6890   58.8280    3.6030 N.pl3  41  ARG41       0.1354
    115  NH2       50.6850   56.5120    3.1480 N.pl3  41  ARG41       0.1354
    116  N         55.3950   51.3300   10.3770 N.3    81  LYS81      -0.1245
    117  CA        56.0070   52.3530    9.5150 C.3    81  LYS81       0.1561
    118  C         55.0920   52.7220    8.3530 C.2    81  LYS81       0.2260
    119  O         55.1240   53.8510    7.8570 O.2    81  LYS81      -0.2867
    120  CB        57.3570   51.8690    8.9780 C.3    81  LYS81       0.0271
    121  CG        58.1340   52.9300    8.2040 C.3    81  LYS81       0.0035
    122  CD        59.5090   52.4410    7.7830 C.3    81  LYS81       0.0206
    123  CE        60.2840   53.5410    7.0650 C.3    81  LYS81       0.1093
    124  NZ        61.6350   53.0710    6.6230 N.3    81  LYS81      -0.1314
@<TRIPOS>BOND
     1    41    42    1
     2    33    34    1
     3    44    43    2
     4    43    42    1
     5    42    45    1
     6     1     2    1
     7    36    35    2
     8    34    35    1
     9    34    37    1
    10    45    46    1
    11     2     5    1
    12     2     3    1
    13    37    38    1
    14    47    46    1
    15     5     6    1
    16     4     3    2
    17    24    23    2
    18     3     9   am
    19    38    39    1
    20    38    40    1
    21    46    48    1
    22    23    22    1
    23     6     7    1
    24    21    22    1
    25    13    10    1
    26     9    10    1
    27    22    25    1
    28     8     7    1
    29    10    11    1
    30    17    16    2
    31    53    50    1
    32    11    14   am
    33    11    12    2
    34    61    59    1
    35    25    26    1
    36    49    50    1
    37    14    15    1
    38    16    15    1
    39    50    51    1
    40    27    26   ar
    41    27    29   ar
    42    26    28   ar
    43    29    31   ar
    44    15    18    1
    45    28    30   ar
    46    60    59    1
    47    59    58    1
    48    31    30   ar
    49    31    32    1
    50    58    55    1
    51    77    75   ar
    52    77    76   ar
    53    51    52    2
    54    18    19    1
    55    18    20    1
    56    75    73   ar
    57    76    74   ar
    58    55    54    1
    59    55    56    1
    60    73    72   ar
    61    74    72   ar
    62    56    62   am
    63    56    57    2
    64    72    71    1
    65    62    63    1
    66   102   103    1
    67   102    99    1
    68    66    63    1
    69   103   104    1
    70    63    64    1
    71    71    68    1
    72   104    98    1
    73    89    87    1
    74    88    87    1
    75    99    98    1
    76    99   100    1
    77    85    84    2
    78    98    92   am
    79    86    87    1
    80    86    83    1
    81    64    65    2
    82    68    67    1
    83    68    69    1
    84   111   110    1
    85   111   112    1
    86   110   109    1
    87    84    83    1
    88    84    90   am
    89    92    93    2
    90    92    91    1
    91   112   113    2
    92   105   100   am
    93   105   106    1
    94   100   101    2
    95    83    82    1
    96    91    90    1
    97    91    94    1
    98    69    70    2
    99   109   106    1
   100   113   115    1
   101   113   114    1
   102   106   107    1
   103    96    95    1
   104    82    80   am
   105    94    95    1
   106    95    97    1
   107    81    80    2
   108    80    79    1
   109   107   108    2
   110    78    79    1
   111   124   123    1
   112   123   122    1
   113   122   121    1
   114   119   118    2
   115   121   120    1
   116   118   117    1
   117   120   117    1
   118   117   116    1
