@<TRIPOS>MOLECULE
tmp/2prhA02.pdb
 219 210 0 0 0
SMALL
GASTEIGER

@<TRIPOS>ATOM
      1  N         51.0520   54.5930   -7.1290 N.3     9  TYR9       -0.1241
      2  CA        50.9000   53.2080   -6.6870 C.3     9  TYR9        0.1605
      3  C         49.6720   52.5370   -7.2790 C.2     9  TYR9        0.2264
      4  O         49.7480   51.4130   -7.7830 O.2     9  TYR9       -0.2867
      5  CB        50.8910   53.1100   -5.1590 C.3     9  TYR9        0.0534
      6  CG        52.2710   52.9690   -4.5660 C.ar    9  TYR9       -0.0201
      7  CD1       53.1790   54.0310   -4.6090 C.ar    9  TYR9       -0.0009
      8  CD2       52.6720   51.7790   -3.9700 C.ar    9  TYR9       -0.0009
      9  CE1       54.4470   53.9130   -4.0760 C.ar    9  TYR9        0.0417
     10  CE2       53.9370   51.6460   -3.4230 C.ar    9  TYR9        0.0417
     11  CZ        54.8210   52.7170   -3.4800 C.ar    9  TYR9        0.1957
     12  OH        56.0900   52.5960   -2.9540 O.3     9  TYR9       -0.2866
     13  N         52.3060   51.3530  -10.2240 N.3    13  LEU13      -0.1231
     14  CA        53.1530   50.3610   -9.5570 C.3    13  LEU13       0.1693
     15  C         52.4260   49.0540   -9.2300 C.2    13  LEU13       0.2591
     16  O         52.8980   47.9760   -9.5980 O.2    13  LEU13      -0.2718
     17  CB        53.8150   50.9330   -8.2890 C.3    13  LEU13       0.0284
     18  CG        54.9540   50.1000   -7.6740 C.3    13  LEU13       0.0019
     19  CD1       55.8760   50.9720   -6.8530 C.3    13  LEU13       0.0001
     20  CD2       54.4440   48.9560   -6.8110 C.3    13  LEU13       0.0001
     21  N         51.2990   49.1540   -8.5270 N.am   14  MET14      -0.1979
     22  CA        50.5480   47.9700   -8.0960 C.3    14  MET14       0.1605
     23  C         50.0110   47.1140   -9.2400 C.2    14  MET14       0.2287
     24  O         50.2020   45.9010   -9.1990 O.2    14  MET14      -0.2864
     25  CB        49.4400   48.3260   -7.0940 C.3    14  MET14       0.0413
     26  CG        49.9640   48.9700   -5.8140 C.3    14  MET14       0.0598
     27  SD        51.2480   47.9990   -4.9900 S.3    14  MET14      -0.1393
     28  CE        50.2180   46.7820   -4.1660 C.3    14  MET14       0.0692
     29  N         52.8910   45.2660  -10.8960 N.3    17  LEU17      -0.1231
     30  CA        53.3080   44.1700  -10.0280 C.3    17  LEU17       0.1693
     31  C         52.3360   42.9750  -10.1260 C.2    17  LEU17       0.2591
     32  O         52.7690   41.8270  -10.1750 O.2    17  LEU17      -0.2718
     33  CB        53.4000   44.6750   -8.5890 C.3    17  LEU17       0.0284
     34  CG        54.5010   44.2110   -7.6390 C.3    17  LEU17       0.0019
     35  CD1       55.8960   44.3530   -8.2520 C.3    17  LEU17       0.0001
     36  CD2       54.4050   45.0410   -6.3600 C.3    17  LEU17       0.0001
     37  N         51.0330   43.2640  -10.1640 N.am   18  GLN18      -0.1979
     38  CA        49.9790   42.2490  -10.3550 C.3    18  GLN18       0.1601
     39  C         50.0260   41.5530  -11.7170 C.2    18  GLN18       0.2287
     40  O         49.7030   40.3710  -11.8270 O.2    18  GLN18      -0.2864
     41  CB        48.5990   42.8620  -10.1160 C.3    18  GLN18       0.0394
     42  CG        48.3600   43.1990   -8.6590 C.3    18  GLN18       0.0908
     43  CD        47.0450   43.8780   -8.4140 C.2    18  GLN18       0.2608
     44  OE1       46.6400   44.7660   -9.1720 O.2    18  GLN18      -0.2717
     45  NE2       46.3700   43.4880   -7.3340 N.am   18  GLN18      -0.0878
     46  N         49.4050   36.1540   -7.2410 N.3    23  PRO23      -0.2116
     47  CA        49.1360   36.7950   -5.9360 C.3    23  PRO23       0.1372
     48  C         49.9720   36.2700   -4.7440 C.2    23  PRO23       0.2244
     49  O         50.3380   37.0590   -3.8670 O.2    23  PRO23      -0.2868
     50  CB        47.6480   36.5180   -5.6930 C.3    23  PRO23       0.0268
     51  CG        47.0980   36.0570   -6.9460 C.3    23  PRO23       0.0207
     52  CD        48.1980   35.5180   -7.7960 C.3    23  PRO23       0.0892
     53  N         53.5420   37.8000   -5.0130 N.3    26  ALA26      -0.1231
     54  CA        53.4790   39.2210   -4.6580 C.3    26  ALA26       0.1694
     55  C         53.2720   39.4500   -3.1530 C.2    26  ALA26       0.2592
     56  O         53.8300   40.3910   -2.5890 O.2    26  ALA26      -0.2718
     57  CB        52.4080   39.9270   -5.4690 C.3    26  ALA26       0.0304
     58  N         52.4730   38.5830   -2.5240 N.am   27  HIS27      -0.1976
     59  CA        52.2930   38.5370   -1.0660 C.3    27  HIS27       0.1656
     60  C         53.6220   38.3190   -0.3210 C.2    27  HIS27       0.2291
     61  O         53.9620   39.0800    0.5780 O.2    27  HIS27      -0.2864
     62  CB        51.2920   37.4300   -0.6990 C.3    27  HIS27       0.0771
     63  CG        50.9270   37.3840    0.7560 C.ar   27  HIS27       0.0820
     64  ND1       50.1970   36.3490    1.3050 N.ar   27  HIS27      -0.2267
     65  CD2       51.1800   38.2440    1.7740 C.ar   27  HIS27       0.1154
     66  CE1       50.0180   36.5710    2.5960 C.ar   27  HIS27       0.1986
     67  NE2       50.6070   37.7120    2.9070 N.ar   27  HIS27      -0.2212
     68  N         56.6400   38.7570   -1.4590 N.3    29  LEU29      -0.1231
     69  CA        57.5030   39.8960   -1.7560 C.3    29  LEU29       0.1693
     70  C         57.1250   41.1280   -0.9350 C.2    29  LEU29       0.2591
     71  O         58.0000   41.8340   -0.4290 O.2    29  LEU29      -0.2718
     72  CB        57.4510   40.2180   -3.2490 C.3    29  LEU29       0.0284
     73  CG        58.3220   41.3490   -3.7920 C.3    29  LEU29       0.0019
     74  CD1       59.8130   40.9480   -3.8470 C.3    29  LEU29       0.0001
     75  CD2       57.8050   41.7650   -5.1740 C.3    29  LEU29       0.0001
     76  N         55.8200   41.3820   -0.8210 N.am   30  ALA30      -0.1980
     77  CA        55.2880   42.4340    0.0390 C.3    30  ALA30       0.1597
     78  C         55.7670   42.2680    1.4780 C.2    30  ALA30       0.2287
     79  O         56.2450   43.2220    2.0810 O.2    30  ALA30      -0.2864
     80  CB        53.7590   42.4560   -0.0160 C.3    30  ALA30       0.0319
     81  N         59.6150   43.0820    1.6220 N.3    33  PHE33      -0.1227
     82  CA        59.9270   44.5080    1.5190 C.3    33  PHE33       0.1736
     83  C         59.5500   45.2650    2.7760 C.2    33  PHE33       0.2596
     84  O         60.3020   46.1220    3.2400 O.2    33  PHE33      -0.2718
     85  CB        59.2220   45.1310    0.3020 C.3    33  PHE33       0.0547
     86  CG        60.0840   45.1970   -0.9240 C.ar   33  PHE33      -0.0202
     87  CD1       60.4700   44.0370   -1.5850 C.ar   33  PHE33      -0.0042
     88  CD2       60.5200   46.4260   -1.4160 C.ar   33  PHE33      -0.0042
     89  CE1       61.2830   44.0930   -2.7250 C.ar   33  PHE33      -0.0003
     90  CE2       61.3360   46.5020   -2.5570 C.ar   33  PHE33      -0.0003
     91  CZ        61.7120   45.3290   -3.2140 C.ar   33  PHE33      -0.0000
     92  N         58.3690   44.9440    3.3010 N.am   34  THR34      -0.1953
     93  CA        57.8300   45.5610    4.5020 C.3    34  THR34       0.1897
     94  C         58.7330   45.2980    5.7070 C.2    34  THR34       0.2313
     95  O         59.0340   46.2240    6.4610 O.2    34  THR34      -0.2863
     96  CB        56.3720   45.0880    4.7480 C.3    34  THR34       0.1794
     97  OG1       55.5850   45.3960    3.5910 O.3    34  THR34      -0.2208
     98  CG2       55.7510   45.7600    5.9620 C.3    34  THR34       0.0378
     99  N         61.3730   48.8190    3.4380 N.3    38  LEU38      -0.1231
    100  CA        61.4300   49.4380    2.1100 C.3    38  LEU38       0.1693
    101  C         60.0510   49.9930    1.7240 C.2    38  LEU38       0.2592
    102  O         59.3430   49.4380    0.8760 O.2    38  LEU38      -0.2718
    103  CB        61.9840   48.4560    1.0650 C.3    38  LEU38       0.0284
    104  CG        63.4730   48.0840    1.1610 C.3    38  LEU38       0.0019
    105  CD1       63.7230   46.6840    0.6110 C.3    38  LEU38       0.0001
    106  CD2       64.3750   49.1090    0.4590 C.3    38  LEU38       0.0001
    107  N         59.6850   51.0910    2.3800 N.am   39  LEU39      -0.1966
    108  CA        58.3660   51.6960    2.2510 C.3    39  LEU39       0.1713
    109  C         58.4630   53.1330    1.7490 C.2    39  LEU39       0.2458
    110  O         59.4760   53.8030    1.9770 O.2    39  LEU39      -0.2730
    111  CB        57.6300   51.6920    3.6060 C.3    39  LEU39       0.0310
    112  CG        57.0360   50.4360    4.2600 C.3    39  LEU39       0.0022
    113  CD1       56.8600   49.3080    3.2680 C.3    39  LEU39       0.0001
    114  CD2       57.8680   49.9650    5.4230 C.3    39  LEU39       0.0001
    115  N         57.4110   53.6100    1.0530 N.am   40  PRO40      -0.2727
    116  CA        57.2730   55.0430    0.7980 C.3    40  PRO40       0.1402
    117  C         56.8360   55.7710    2.0730 C.2    40  PRO40       0.2269
    118  O         56.5040   55.1130    3.0640 O.2    40  PRO40      -0.2865
    119  CB        56.1570   55.0960   -0.2480 C.3    40  PRO40       0.0296
    120  CG        55.3340   53.8920    0.0220 C.3    40  PRO40       0.0237
    121  CD        56.3110   52.8360    0.4440 C.3    40  PRO40       0.0939
    122  N         47.9630   38.8710    6.3800 N.3    69  PHE69      -0.1241
    123  CA        49.0110   39.4730    5.5720 C.3    69  PHE69       0.1605
    124  C         50.3700   39.0820    6.1590 C.2    69  PHE69       0.2264
    125  O         51.2550   38.5700    5.4510 O.2    69  PHE69      -0.2867
    126  CB        48.8590   41.0000    5.4610 C.3    69  PHE69       0.0534
    127  CG        49.9920   41.6590    4.7220 C.ar   69  PHE69      -0.0203
    128  CD1       50.0300   41.6500    3.3290 C.ar   69  PHE69      -0.0042
    129  CD2       51.0420   42.2430    5.4200 C.ar   69  PHE69      -0.0042
    130  CE1       51.0900   42.2120    2.6470 C.ar   69  PHE69      -0.0003
    131  CE2       52.1120   42.8180    4.7530 C.ar   69  PHE69      -0.0003
    132  CZ        52.1380   42.8080    3.3590 C.ar   69  PHE69      -0.0000
    133  N         54.2790   51.7600    7.9300 N.3    82  MET82      -0.1245
    134  CA        53.3010   51.9490    6.8640 C.3    82  MET82       0.1570
    135  C         52.1520   52.8920    7.2900 C.2    82  MET82       0.2261
    136  O         51.4370   53.4360    6.4460 O.2    82  MET82      -0.2867
    137  CB        52.7590   50.5850    6.4260 C.3    82  MET82       0.0387
    138  CG        52.4430   50.4830    4.9550 C.3    82  MET82       0.0595
    139  SD        51.9190   48.8410    4.4330 S.3    82  MET82      -0.1393
    140  CE        53.4990   48.0460    4.1510 C.3    82  MET82       0.0692
    141  N         45.3900   31.2820   -3.8940 N.3   105  VAL105     -0.1245
    142  CA        44.9140   32.6560   -3.8150 C.3   105  VAL105      0.1561
    143  C         44.6410   33.1230   -5.2240 C.2   105  VAL105      0.2260
    144  O         45.3470   32.7520   -6.1540 O.2   105  VAL105     -0.2867
    145  CB        45.8920   33.6330   -3.0880 C.3   105  VAL105      0.0252
    146  CG1       45.7240   33.5180   -1.6000 C.3   105  VAL105      0.0019
    147  CG2       47.3180   33.3550   -3.4540 C.3   105  VAL105      0.0019
    148  N         43.0160   36.3710   -7.6850 N.3   107  ARG107     -0.1245
    149  CA        42.7110   37.7670   -7.8340 C.3   107  ARG107      0.1563
    150  C         41.4260   37.9180   -8.6540 C.2   107  ARG107      0.2260
    151  O         41.2100   37.1800   -9.6330 O.2   107  ARG107     -0.2867
    152  CB        43.8870   38.4370   -8.5420 C.3   107  ARG107      0.0307
    153  CG        44.2370   39.8020   -8.0190 C.3   107  ARG107      0.0489
    154  CD        45.3260   40.4320   -8.8530 C.3   107  ARG107      0.2205
    155  NE        46.6810   40.1370   -8.3730 N.pl3 107  ARG107     -0.0865
    156  CZ        47.5900   39.4510   -9.0550 C.cat 107  ARG107      0.5346
    157  NH1       48.7980   39.2580   -8.5490 N.pl3 107  ARG107      0.1354
    158  NH2       47.2940   38.9630  -10.2490 N.pl3 107  ARG107      0.1354
    159  N         39.5700   39.4250   -3.7490 N.3   114  VAL114     -0.1245
    160  CA        40.4660   38.2760   -3.7550 C.3   114  VAL114      0.1561
    161  C         39.6430   37.0750   -3.2610 C.2   114  VAL114      0.2260
    162  O         38.7510   37.2330   -2.4230 O.2   114  VAL114     -0.2867
    163  CB        41.7410   38.5220   -2.8340 C.3   114  VAL114      0.0252
    164  CG1       42.5690   37.2360   -2.6200 C.3   114  VAL114      0.0019
    165  CG2       42.6330   39.6510   -3.3940 C.3   114  VAL114      0.0019
    166  N         40.7680   33.5070   -1.3960 N.3   116  ASN116     -0.1240
    167  CA        41.8960   32.7670   -0.8420 C.3   116  ASN116      0.1653
    168  C         41.4640   31.4710   -0.1690 C.2   116  ASN116      0.2266
    169  O         40.3970   31.4060    0.4550 O.2   116  ASN116     -0.2867
    170  CB        42.7100   33.6530    0.1200 C.3   116  ASN116      0.1155
    171  CG        42.2190   33.5880    1.5500 C.2   116  ASN116      0.2627
    172  OD1       42.6090   32.7010    2.3150 O.2   116  ASN116     -0.2716
    173  ND2       41.3720   34.5430    1.9290 N.am  116  ASN116     -0.0877
    174  N         44.2690   29.6800    1.5580 N.3   118  TYR118     -0.1241
    175  CA        45.6090   29.3890    2.0770 C.3   118  TYR118      0.1605
    176  C         45.5880   28.1370    2.9490 C.2   118  TYR118      0.2264
    177  O         46.4370   27.2550    2.7940 O.2   118  TYR118     -0.2867
    178  CB        46.1810   30.5820    2.8510 C.3   118  TYR118      0.0534
    179  CG        47.1020   31.4980    2.0650 C.ar  118  TYR118     -0.0201
    180  CD1       46.7990   32.8420    1.9070 C.ar  118  TYR118     -0.0009
    181  CD2       48.3030   31.0300    1.5150 C.ar  118  TYR118     -0.0009
    182  CE1       47.6530   33.7030    1.2110 C.ar  118  TYR118      0.0417
    183  CE2       49.1570   31.8810    0.7950 C.ar  118  TYR118      0.0417
    184  CZ        48.8220   33.2130    0.6570 C.ar  118  TYR118      0.1957
    185  OH        49.6490   34.0730   -0.0280 O.3   118  TYR118     -0.2866
    186  N         42.8510   44.7960    4.4920 N.3   318  TYR318     -0.1241
    187  CA        43.8570   43.9160    3.9500 C.3   318  TYR318      0.1605
    188  C         43.8150   44.0450    2.4200 C.2   318  TYR318      0.2264
    189  O         44.7380   44.5980    1.8180 O.2   318  TYR318     -0.2867
    190  CB        43.6010   42.4730    4.4260 C.3   318  TYR318      0.0534
    191  CG        44.6030   41.4070    3.9780 C.ar  318  TYR318     -0.0201
    192  CD1       44.5950   40.1490    4.5720 C.ar  318  TYR318     -0.0009
    193  CD2       45.5440   41.6500    2.9650 C.ar  318  TYR318     -0.0009
    194  CE1       45.4800   39.1530    4.1710 C.ar  318  TYR318      0.0417
    195  CE2       46.4370   40.6510    2.5500 C.ar  318  TYR318      0.0417
    196  CZ        46.3930   39.4090    3.1640 C.ar  318  TYR318      0.1957
    197  OH        47.2670   38.4120    2.7870 O.3   318  TYR318     -0.2866
    198  N         45.0440   47.0910    0.4270 N.3   321  LEU321     -0.1231
    199  CA        46.5010   47.1490    0.3330 C.3   321  LEU321      0.1693
    200  C         47.0490   46.4450   -0.9080 C.2   321  LEU321      0.2592
    201  O         48.0370   46.8880   -1.4760 O.2   321  LEU321     -0.2718
    202  CB        47.1450   46.5520    1.5980 C.3   321  LEU321      0.0284
    203  CG        48.6740   46.5470    1.7360 C.3   321  LEU321      0.0019
    204  CD1       49.2130   47.9500    1.9840 C.3   321  LEU321      0.0001
    205  CD2       49.1100   45.5960    2.8480 C.3   321  LEU321      0.0001
    206  N         46.4180   45.3440   -1.3160 N.am  322  THR322     -0.1953
    207  CA        46.8800   44.5900   -2.4810 C.3   322  THR322      0.1897
    208  C         46.6400   45.3420   -3.7930 C.2   322  THR322      0.2313
    209  O         47.3910   45.1690   -4.7480 O.2   322  THR322     -0.2863
    210  CB        46.2640   43.1700   -2.5460 C.3   322  THR322      0.1794
    211  OG1       44.8970   43.2460   -2.9760 O.3   322  THR322     -0.2208
    212  CG2       46.3550   42.4670   -1.1810 C.3   322  THR322      0.0378
    213  N         50.9020   50.4540   -0.0810 N.3   326  PRO326     -0.2116
    214  CA        51.1520   51.2100    1.1560 C.3   326  PRO326      0.1372
    215  C         50.4390   52.5620    1.3030 C.2   326  PRO326      0.2244
    216  O         49.9470   52.8380    2.3910 O.2   326  PRO326     -0.2868
    217  CB        52.6800   51.3780    1.1600 C.3   326  PRO326      0.0268
    218  CG        53.1760   50.1200    0.4990 C.3   326  PRO326      0.0207
    219  CD        52.1460   49.8480   -0.6050 C.3   326  PRO326      0.0892
@<TRIPOS>BOND
     1    40    39    2
     2    39    38    1
     3    29    30    1
     4    38    37    1
     5    38    41    1
     6   158   156    1
     7    13    14    1
     8    32    31    2
     9    37    31   am
    10    31    30    1
    11    41    42    1
    12    30    33    1
    13   151   150    2
    14    16    15    2
    15    14    15    1
    16    14    17    1
    17    23    24    2
    18    23    22    1
    19    15    21   am
    20    44    43    2
    21   156   157    1
    22   156   155    2
    23   154   155    1
    24   154   153    1
    25    42    43    1
    26   150   149    1
    27    33    34    1
    28   152   153    1
    29   152   149    1
    30    21    22    1
    31    43    45   am
    32    17    18    1
    33    35    34    1
    34    22    25    1
    35   149   148    1
    36    52    46    1
    37    52    51    1
    38     4     3    2
    39    18    19    1
    40    18    20    1
    41    34    36    1
    42     3     2    1
    43    46    47    1
    44     1     2    1
    45    25    26    1
    46    51    50    1
    47     2     5    1
    48   144   143    2
    49    47    50    1
    50    47    48    1
    51    26    27    1
    52    57    54    1
    53   143   142    1
    54    75    73    1
    55     5     6    1
    56    53    54    1
    57    27    28    1
    58   209   208    2
    59    48    49    2
    60    54    55    1
    61     7     6   ar
    62     7     9   ar
    63     6     8   ar
    64     9    11   ar
    65     8    10   ar
    66   141   142    1
    67    74    73    1
    68   142   145    1
    69   208   207    1
    70    73    72    1
    71   160   159    1
    72   160   161    1
    73   160   163    1
    74    11    10   ar
    75    11    12    1
    76   147   145    1
    77   165   163    1
    78   161   162    2
    79    72    69    1
    80    91    89   ar
    81    91    90   ar
    82    55    56    2
    83    55    58   am
    84   145   146    1
    85   211   210    1
    86   163   164    1
    87    89    87   ar
    88    90    88   ar
    89   210   207    1
    90   210   212    1
    91    58    59    1
    92   207   206    1
    93    69    68    1
    94    69    70    1
    95    87    86   ar
    96   201   200    2
    97    88    86   ar
    98   166   167    1
    99   206   200   am
   100    59    62    1
   101    59    60    1
   102    70    76   am
   103    70    71    2
   104    86    85    1
   105   200   199    1
   106   167   168    1
   107   167   170    1
   108    76    77    1
   109    62    63    1
   110   219   213    1
   111   219   218    1
   112    60    61    2
   113   119   120    1
   114   119   116    1
   115   168   169    2
   116   213   214    1
   117   185   184    1
   118    80    77    1
   119   120   121    1
   120    77    78    1
   121   170   171    1
   122    85    82    1
   123   199   198    1
   124   199   202    1
   125   121   115    1
   126   106   104    1
   127   218   217    1
   128   105   104    1
   129   184   183   ar
   130   184   182   ar
   131    63    64   ar
   132    63    65   ar
   133   183   181   ar
   134   116   115    1
   135   116   117    1
   136   102   101    2
   137   115   109   am
   138   103   104    1
   139   103   100    1
   140   214   217    1
   141   214   215    1
   142   182   180   ar
   143   215   216    2
   144    64    66   ar
   145    78    79    2
   146   181   179   ar
   147    82    81    1
   148    82    83    1
   149   171   173   am
   150   171   172    2
   151   174   175    1
   152   202   203    1
   153   101   100    1
   154   101   107   am
   155   203   204    1
   156   203   205    1
   157   109   110    2
   158   109   108    1
   159    65    67   ar
   160   189   188    2
   161   180   179   ar
   162   179   178    1
   163   117   118    2
   164   175   178    1
   165   175   176    1
   166   100    99    1
   167   108   107    1
   168   108   111    1
   169   188   187    1
   170   195   193   ar
   171   195   196   ar
   172    66    67   ar
   173   130   128   ar
   174   130   132   ar
   175    83    84    2
   176    83    92   am
   177   197   196    1
   178   177   176    2
   179   193   191   ar
   180   196   194   ar
   181   113   112    1
   182    92    93    1
   183   128   127   ar
   184   132   131   ar
   185    97    96    1
   186   111   112    1
   187   187   190    1
   188   187   186    1
   189   191   190    1
   190   191   192   ar
   191   140   139    1
   192   194   192   ar
   193   112   114    1
   194   139   138    1
   195    93    96    1
   196    93    94    1
   197   127   129   ar
   198   127   126    1
   199    96    98    1
   200   131   129   ar
   201   138   137    1
   202   125   124    2
   203   126   123    1
   204   123   124    1
   205   123   122    1
   206    94    95    2
   207   137   134    1
   208   136   135    2
   209   134   135    1
   210   134   133    1
