@<TRIPOS>MOLECULE
tmp/2prlA02.pdb
 224 214 0 0 0
SMALL
GASTEIGER

@<TRIPOS>ATOM
      1  N         59.4520   53.6610   -6.6700 N.3     2  ALA2       -0.1245
      2  CA        58.4480   53.5980   -5.6190 C.3     2  ALA2        0.1562
      3  C         58.0480   54.9530   -5.1010 C.2     2  ALA2        0.2260
      4  O         57.6330   55.0720   -3.9560 O.2     2  ALA2       -0.2867
      5  CB        58.9550   52.7590   -4.4800 C.3     2  ALA2        0.0290
      6  N         50.8260   54.6380   -7.3840 N.3     9  TYR9       -0.1241
      7  CA        50.6490   53.2660   -6.9290 C.3     9  TYR9        0.1605
      8  C         49.3950   52.6340   -7.5140 C.2     9  TYR9        0.2264
      9  O         49.4490   51.5280   -8.0470 O.2     9  TYR9       -0.2867
     10  CB        50.6570   53.1850   -5.3970 C.3     9  TYR9        0.0534
     11  CG        52.0580   53.0850   -4.8460 C.ar    9  TYR9       -0.0201
     12  CD1       52.9060   54.1950   -4.8480 C.ar    9  TYR9       -0.0009
     13  CD2       52.5480   51.8750   -4.3550 C.ar    9  TYR9       -0.0009
     14  CE1       54.1970   54.1090   -4.3630 C.ar    9  TYR9        0.0417
     15  CE2       53.8420   51.7770   -3.8600 C.ar    9  TYR9        0.0417
     16  CZ        54.6580   52.8970   -3.8720 C.ar    9  TYR9        0.1957
     17  OH        55.9400   52.8150   -3.3950 O.3     9  TYR9       -0.2866
     18  N         52.0540   51.5560  -10.6030 N.3    13  LEU13      -0.1231
     19  CA        52.9220   50.5810   -9.9370 C.3    13  LEU13       0.1693
     20  C         52.2240   49.2420   -9.6520 C.2    13  LEU13       0.2591
     21  O         52.7380   48.1790  -10.0260 O.2    13  LEU13      -0.2718
     22  CB        53.5300   51.1730   -8.6560 C.3    13  LEU13       0.0284
     23  CG        54.6460   50.4080   -7.9300 C.3    13  LEU13       0.0019
     24  CD1       55.5150   51.3700   -7.1460 C.3    13  LEU13       0.0001
     25  CD2       54.0970   49.3380   -7.0000 C.3    13  LEU13       0.0001
     26  N         51.0660   49.2970   -8.9930 N.am   14  MET14      -0.1979
     27  CA        50.3430   48.0790   -8.6000 C.3    14  MET14       0.1605
     28  C         49.8120   47.2640   -9.7850 C.2    14  MET14       0.2287
     29  O         50.0120   46.0430   -9.8110 O.2    14  MET14      -0.2864
     30  CB        49.2310   48.3720   -7.5790 C.3    14  MET14       0.0413
     31  CG        49.7310   48.9360   -6.2510 C.3    14  MET14       0.0598
     32  SD        50.9650   47.9170   -5.4130 S.3    14  MET14      -0.1393
     33  CE        49.9890   46.4900   -4.9600 C.3    14  MET14       0.0692
     34  N         52.8830   45.5410  -11.2200 N.3    17  LEU17      -0.1231
     35  CA        53.2490   44.4670  -10.2960 C.3    17  LEU17       0.1693
     36  C         52.3260   43.2460  -10.4440 C.2    17  LEU17       0.2591
     37  O         52.7950   42.1100  -10.5250 O.2    17  LEU17      -0.2718
     38  CB        53.2040   44.9960   -8.8610 C.3    17  LEU17       0.0284
     39  CG        53.7730   44.2000   -7.6820 C.3    17  LEU17       0.0019
     40  CD1       54.1560   45.1760   -6.5840 C.3    17  LEU17       0.0001
     41  CD2       52.7850   43.1510   -7.1510 C.3    17  LEU17       0.0001
     42  N         51.0200   43.4950  -10.4910 N.am   18  GLN18      -0.1979
     43  CA        50.0260   42.4270  -10.6090 C.3    18  GLN18       0.1601
     44  C         50.0420   41.7390  -11.9780 C.2    18  GLN18       0.2287
     45  O         49.7130   40.5590  -12.0830 O.2    18  GLN18      -0.2864
     46  CB        48.6310   42.9460  -10.2610 C.3    18  GLN18       0.0394
     47  CG        48.5190   43.3700   -8.7970 C.3    18  GLN18       0.0908
     48  CD        47.0900   43.5640   -8.3300 C.2    18  GLN18       0.2608
     49  OE1       46.2290   44.0010   -9.0880 O.2    18  GLN18      -0.2717
     50  NE2       46.8360   43.2450   -7.0670 N.am   18  GLN18      -0.0878
     51  N         49.1850   36.4930   -7.3120 N.3    23  PRO23      -0.2116
     52  CA        48.8990   37.0490   -5.9830 C.3    23  PRO23       0.1372
     53  C         49.7470   36.5130   -4.8180 C.2    23  PRO23       0.2244
     54  O         50.1950   37.3050   -3.9820 O.2    23  PRO23      -0.2868
     55  CB        47.4050   36.7570   -5.7720 C.3    23  PRO23       0.0268
     56  CG        46.9970   35.8370   -6.8590 C.3    23  PRO23       0.0207
     57  CD        47.9640   35.9990   -7.9780 C.3    23  PRO23       0.0892
     58  N         53.2840   37.9120   -5.1550 N.3    26  ALA26      -0.1231
     59  CA        53.1760   39.3170   -4.7780 C.3    26  ALA26       0.1694
     60  C         53.0790   39.4720   -3.2560 C.2    26  ALA26       0.2592
     61  O         53.6970   40.3650   -2.6750 O.2    26  ALA26      -0.2718
     62  CB        51.9690   39.9460   -5.4580 C.3    26  ALA26       0.0304
     63  N         52.2980   38.5930   -2.6330 N.am   27  HIS27      -0.1976
     64  CA        52.1640   38.5340   -1.1860 C.3    27  HIS27       0.1656
     65  C         53.5160   38.2980   -0.5010 C.2    27  HIS27       0.2291
     66  O         53.8920   39.0440    0.4070 O.2    27  HIS27      -0.2864
     67  CB        51.1530   37.4450   -0.7960 C.3    27  HIS27       0.0771
     68  CG        50.8050   37.4280    0.6630 C.ar   27  HIS27       0.0820
     69  ND1       50.0000   36.4580    1.2210 N.ar   27  HIS27      -0.2267
     70  CD2       51.1480   38.2610    1.6760 C.ar   27  HIS27       0.1154
     71  CE1       49.8660   36.6920    2.5160 C.ar   27  HIS27       0.1986
     72  NE2       50.5540   37.7800    2.8180 N.ar   27  HIS27      -0.2212
     73  N         56.4660   38.8280   -1.7340 N.3    29  LEU29      -0.1231
     74  CA        57.3100   39.9930   -2.0100 C.3    29  LEU29       0.1693
     75  C         56.9380   41.1960   -1.1450 C.2    29  LEU29       0.2591
     76  O         57.8200   41.8920   -0.6370 O.2    29  LEU29      -0.2718
     77  CB        57.2440   40.3710   -3.4940 C.3    29  LEU29       0.0284
     78  CG        58.3310   41.3140   -4.0250 C.3    29  LEU29       0.0019
     79  CD1       59.7100   40.6480   -3.9840 C.3    29  LEU29       0.0001
     80  CD2       58.0040   41.7650   -5.4410 C.3    29  LEU29       0.0001
     81  N         55.6360   41.4330   -0.9930 N.am   30  ALA30      -0.1980
     82  CA        55.1280   42.5070   -0.1440 C.3    30  ALA30       0.1597
     83  C         55.5740   42.3230    1.3090 C.2    30  ALA30       0.2287
     84  O         56.0040   43.2770    1.9430 O.2    30  ALA30      -0.2864
     85  CB        53.6130   42.6020   -0.2370 C.3    30  ALA30       0.0319
     86  N         59.4190   43.0250    1.4000 N.3    33  PHE33      -0.1227
     87  CA        59.7060   44.4590    1.2810 C.3    33  PHE33       0.1736
     88  C         59.3220   45.2160    2.5470 C.2    33  PHE33       0.2596
     89  O         60.0830   46.0560    3.0310 O.2    33  PHE33      -0.2718
     90  CB        59.0180   45.0620    0.0450 C.3    33  PHE33       0.0547
     91  CG        59.8740   45.0320   -1.1940 C.ar   33  PHE33      -0.0202
     92  CD1       60.3590   43.8260   -1.6950 C.ar   33  PHE33      -0.0042
     93  CD2       60.2070   46.2070   -1.8500 C.ar   33  PHE33      -0.0042
     94  CE1       61.1630   43.7910   -2.8300 C.ar   33  PHE33      -0.0003
     95  CE2       61.0130   46.1840   -2.9920 C.ar   33  PHE33      -0.0003
     96  CZ        61.4890   44.9710   -3.4830 C.ar   33  PHE33      -0.0000
     97  N         58.1420   44.8970    3.0720 N.am   34  THR34      -0.1953
     98  CA        57.6330   45.4990    4.3040 C.3    34  THR34       0.1897
     99  C         58.5600   45.2120    5.4890 C.2    34  THR34       0.2313
    100  O         58.8560   46.1140    6.2710 O.2    34  THR34      -0.2863
    101  CB        56.1840   45.0350    4.5840 C.3    34  THR34       0.1794
    102  OG1       55.3650   45.3730    3.4610 O.3    34  THR34      -0.2208
    103  CG2       55.6090   45.6920    5.8370 C.3    34  THR34       0.0378
    104  N         61.2500   48.7520    3.1390 N.3    38  LEU38      -0.1231
    105  CA        61.3430   49.3420    1.7970 C.3    38  LEU38       0.1693
    106  C         59.9680   49.8010    1.3280 C.2    38  LEU38       0.2592
    107  O         59.2840   49.1110    0.5670 O.2    38  LEU38      -0.2718
    108  CB        61.9700   48.3570    0.8000 C.3    38  LEU38       0.0284
    109  CG        63.3510   47.7720    1.1290 C.3    38  LEU38       0.0019
    110  CD1       63.7640   46.7620    0.0640 C.3    38  LEU38       0.0001
    111  CD2       64.4210   48.8580    1.2900 C.3    38  LEU38       0.0001
    112  N         59.5690   50.9770    1.7980 N.am   39  LEU39      -0.1966
    113  CA        58.2110   51.4610    1.6110 C.3    39  LEU39       0.1713
    114  C         58.2160   52.9270    1.2060 C.2    39  LEU39       0.2458
    115  O         59.1650   53.6510    1.5340 O.2    39  LEU39      -0.2730
    116  CB        57.4070   51.2880    2.9080 C.3    39  LEU39       0.0310
    117  CG        57.2550   49.8770    3.4870 C.3    39  LEU39       0.0022
    118  CD1       56.9210   49.9330    4.9670 C.3    39  LEU39       0.0001
    119  CD2       56.2120   49.0750    2.7150 C.3    39  LEU39       0.0001
    120  N         57.1580   53.3720    0.4930 N.am   40  PRO40      -0.2727
    121  CA        57.0140   54.8020    0.2360 C.3    40  PRO40       0.1402
    122  C         56.7870   55.5410    1.5520 C.2    40  PRO40       0.2269
    123  O         56.2900   54.9490    2.5180 O.2    40  PRO40      -0.2865
    124  CB        55.7650   54.8780   -0.6510 C.3    40  PRO40       0.0296
    125  CG        54.9950   53.6390   -0.3310 C.3    40  PRO40       0.0237
    126  CD        56.0520   52.5970   -0.1050 C.3    40  PRO40       0.0939
    127  N         47.7800   38.8550    6.2380 N.3    69  PHE69      -0.1241
    128  CA        48.8460   39.4950    5.4830 C.3    69  PHE69       0.1605
    129  C         50.2060   39.1040    6.0560 C.2    69  PHE69       0.2264
    130  O         51.1050   38.6710    5.3260 O.2    69  PHE69      -0.2867
    131  CB        48.7020   41.0220    5.3790 C.3    69  PHE69       0.0534
    132  CG        49.8570   41.6640    4.6660 C.ar   69  PHE69      -0.0203
    133  CD1       49.9190   41.6560    3.2770 C.ar   69  PHE69      -0.0042
    134  CD2       50.9190   42.2070    5.3830 C.ar   69  PHE69      -0.0042
    135  CE1       51.0070   42.2120    2.6040 C.ar   69  PHE69      -0.0003
    136  CE2       52.0210   42.7650    4.7220 C.ar   69  PHE69      -0.0003
    137  CZ        52.0610   42.7650    3.3290 C.ar   69  PHE69      -0.0000
    138  N         54.1860   51.6840    7.6950 N.3    82  MET82      -0.1245
    139  CA        53.1820   51.9100    6.6560 C.3    82  MET82       0.1570
    140  C         52.0500   52.8390    7.1320 C.2    82  MET82       0.2261
    141  O         51.3140   53.3970    6.3210 O.2    82  MET82      -0.2867
    142  CB        52.6150   50.5620    6.1930 C.3    82  MET82       0.0387
    143  CG        52.3010   50.4940    4.7160 C.3    82  MET82       0.0595
    144  SD        51.6600   48.8890    4.2040 S.3    82  MET82      -0.1393
    145  CE        53.1490   47.9490    3.9470 C.3    82  MET82       0.0692
    146  N         45.3830   31.4330   -4.1180 N.3   105  VAL105     -0.1245
    147  CA        44.9270   32.8230   -4.0450 C.3   105  VAL105      0.1561
    148  C         44.6020   33.2860   -5.4580 C.2   105  VAL105      0.2260
    149  O         45.3130   32.9550   -6.4040 O.2   105  VAL105     -0.2867
    150  CB        45.9930   33.7980   -3.4620 C.3   105  VAL105      0.0252
    151  CG1       45.3200   35.1210   -3.0520 C.3   105  VAL105      0.0019
    152  CG2       46.7110   33.1930   -2.2930 C.3   105  VAL105      0.0019
    153  N         42.9430   36.6550   -7.8600 N.3   107  ARG107     -0.1245
    154  CA        42.4780   38.0270   -7.9690 C.3   107  ARG107      0.1563
    155  C         41.2010   38.0780   -8.7920 C.2   107  ARG107      0.2260
    156  O         41.0390   37.3260   -9.7660 O.2   107  ARG107     -0.2867
    157  CB        43.5260   38.9200   -8.6310 C.3   107  ARG107      0.0307
    158  CG        44.8760   38.9260   -7.9580 C.3   107  ARG107      0.0489
    159  CD        45.7180   40.0190   -8.5720 C.3   107  ARG107      0.2205
    160  NE        47.0460   40.0960   -7.9820 N.pl3 107  ARG107     -0.0865
    161  CZ        48.1660   39.7460   -8.5970 C.cat 107  ARG107      0.5346
    162  NH1       48.1350   39.2830   -9.8440 N.pl3 107  ARG107      0.1354
    163  NH2       49.3240   39.8690   -7.9630 N.pl3 107  ARG107      0.1354
    164  N         39.3610   39.5090   -3.8860 N.3   114  VAL114     -0.1245
    165  CA        40.2880   38.3890   -3.8780 C.3   114  VAL114      0.1561
    166  C         39.5300   37.1800   -3.3420 C.2   114  VAL114      0.2260
    167  O         38.6420   37.3220   -2.4980 O.2   114  VAL114     -0.2867
    168  CB        41.5470   38.7030   -3.0050 C.3   114  VAL114      0.0252
    169  CG1       42.4020   37.4380   -2.7450 C.3   114  VAL114      0.0019
    170  CG2       42.4010   39.8090   -3.6730 C.3   114  VAL114      0.0019
    171  N         40.7510   33.5840   -1.5530 N.3   116  ASN116     -0.1240
    172  CA        41.8790   32.8020   -1.0750 C.3   116  ASN116      0.1653
    173  C         41.4340   31.5140   -0.4110 C.2   116  ASN116      0.2266
    174  O         40.3740   31.4530    0.2250 O.2   116  ASN116     -0.2867
    175  CB        42.7240   33.6140   -0.0980 C.3   116  ASN116      0.1155
    176  CG        42.2110   33.5170    1.3360 C.2   116  ASN116      0.2627
    177  OD1       42.6060   32.6260    2.0890 O.2   116  ASN116     -0.2716
    178  ND2       41.3210   34.4300    1.7090 N.am  116  ASN116     -0.0877
    179  N         44.2000   29.7050    1.3640 N.3   118  TYR118     -0.1241
    180  CA        45.5280   29.3890    1.9030 C.3   118  TYR118      0.1605
    181  C         45.5130   28.1280    2.7580 C.2   118  TYR118      0.2264
    182  O         46.3990   27.2810    2.6400 O.2   118  TYR118     -0.2867
    183  CB        46.0820   30.5510    2.7240 C.3   118  TYR118      0.0534
    184  CG        46.9830   31.5030    1.9660 C.ar  118  TYR118     -0.0201
    185  CD1       46.6550   32.8520    1.8500 C.ar  118  TYR118     -0.0009
    186  CD2       48.1740   31.0620    1.3820 C.ar  118  TYR118     -0.0009
    187  CE1       47.4860   33.7420    1.1760 C.ar  118  TYR118      0.0417
    188  CE2       49.0140   31.9480    0.6910 C.ar  118  TYR118      0.0417
    189  CZ        48.6550   33.2860    0.5970 C.ar  118  TYR118      0.1957
    190  OH        49.4540   34.1690   -0.0840 O.3   118  TYR118     -0.2866
    191  N         42.7700   44.5440    4.3870 N.3   327  TYR327     -0.1241
    192  CA        43.7980   43.7350    3.7740 C.3   327  TYR327      0.1605
    193  C         43.7040   43.9280    2.2550 C.2   327  TYR327      0.2264
    194  O         44.6270   44.4490    1.6330 O.2   327  TYR327     -0.2867
    195  CB        43.6330   42.2660    4.2000 C.3   327  TYR327      0.0534
    196  CG        44.6600   41.2790    3.6640 C.ar  327  TYR327     -0.0201
    197  CD1       44.7830   40.0060    4.2290 C.ar  327  TYR327     -0.0009
    198  CD2       45.4920   41.6030    2.5930 C.ar  327  TYR327     -0.0009
    199  CE1       45.7040   39.0920    3.7370 C.ar  327  TYR327      0.0417
    200  CE2       46.4120   40.6900    2.0920 C.ar  327  TYR327      0.0417
    201  CZ        46.5120   39.4450    2.6680 C.ar  327  TYR327      0.1957
    202  OH        47.4250   38.5590    2.1690 O.3   327  TYR327     -0.2866
    203  N         44.9420   46.9900    0.2200 N.3   330  LEU330     -0.1231
    204  CA        46.3960   47.0790    0.0880 C.3   330  LEU330      0.1693
    205  C         46.9120   46.3490   -1.1600 C.2   330  LEU330      0.2592
    206  O         47.8260   46.8280   -1.8220 O.2   330  LEU330     -0.2718
    207  CB        47.0680   46.5360    1.3570 C.3   330  LEU330      0.0284
    208  CG        48.5920   46.4980    1.4690 C.3   330  LEU330      0.0019
    209  CD1       49.1760   47.9040    1.4300 C.3   330  LEU330      0.0001
    210  CD2       49.0060   45.7720    2.7520 C.3   330  LEU330      0.0001
    211  N         46.3080   45.2050   -1.4830 N.am  331  THR331     -0.1953
    212  CA        46.7180   44.4070   -2.6410 C.3   331  THR331      0.1897
    213  C         46.4670   45.1200   -3.9750 C.2   331  THR331      0.2313
    214  O         47.1810   44.8850   -4.9530 O.2   331  THR331     -0.2863
    215  CB        46.0460   43.0060   -2.6550 C.3   331  THR331      0.1794
    216  OG1       44.6800   43.1190   -3.0740 O.3   331  THR331     -0.2208
    217  CG2       46.0960   42.3630   -1.2760 C.3   331  THR331      0.0378
    218  N         50.7440   50.4380   -0.3850 N.3   335  PRO335     -0.2116
    219  CA        50.9110   51.1290    0.9040 C.3   335  PRO335      0.1372
    220  C         50.2310   52.4970    1.0620 C.2   335  PRO335      0.2244
    221  O         49.7530   52.7830    2.1630 O.2   335  PRO335     -0.2868
    222  CB        52.4340   51.2620    1.0370 C.3   335  PRO335      0.0268
    223  CG        52.9640   50.1020    0.2810 C.3   335  PRO335      0.0207
    224  CD        52.0350   49.9380   -0.8970 C.3   335  PRO335      0.0892
@<TRIPOS>BOND
     1    45    44    2
     2    44    43    1
     3    34    35    1
     4    43    42    1
     5    43    46    1
     6    18    19    1
     7    37    36    2
     8    42    36   am
     9    36    35    1
    10    35    38    1
    11    46    47    1
    12    21    20    2
    13    19    20    1
    14    19    22    1
    15   162   161    1
    16    29    28    2
    17    28    27    1
    18   156   155    2
    19    20    26   am
    20    49    48    2
    21    26    27    1
    22    38    39    1
    23    47    48    1
    24   155   154    1
    25    22    23    1
    26   157   154    1
    27   157   158    1
    28    27    30    1
    29   161   160    2
    30   161   163    1
    31   159   160    1
    32   159   158    1
    33    48    50   am
    34     9     8    2
    35    57    51    1
    36    57    56    1
    37   154   153    1
    38    23    24    1
    39    23    25    1
    40    39    41    1
    41    39    40    1
    42    30    31    1
    43     8     7    1
    44     6     7    1
    45    51    52    1
    46     7    10    1
    47    56    55    1
    48     1     2    1
    49   149   148    2
    50    31    32    1
    51    52    55    1
    52    52    53    1
    53     2     3    1
    54     2     5    1
    55   148   147    1
    56    62    59    1
    57    80    78    1
    58    32    33    1
    59    10    11    1
    60    58    59    1
    61     3     4    2
    62   214   213    2
    63    12    11   ar
    64    12    14   ar
    65    11    13   ar
    66    53    54    2
    67    59    60    1
    68    14    16   ar
    69    13    15   ar
    70   146   147    1
    71   147   150    1
    72    78    79    1
    73    78    77    1
    74   213   212    1
    75   164   165    1
    76   165   166    1
    77   165   168    1
    78    16    15   ar
    79    16    17    1
    80   170   168    1
    81    77    74    1
    82    96    95   ar
    83    96    94   ar
    84   150   151    1
    85   150   152    1
    86   166   167    2
    87    60    61    2
    88    60    63   am
    89   216   215    1
    90   168   169    1
    91    95    93   ar
    92    94    92   ar
    93   215   212    1
    94   215   217    1
    95   212   211    1
    96    63    64    1
    97    74    73    1
    98    74    75    1
    99    93    91   ar
   100   206   205    2
   101    92    91   ar
   102   171   172    1
   103   211   205   am
   104    91    90    1
   105    64    67    1
   106    64    65    1
   107   205   204    1
   108    75    81   am
   109    75    76    2
   110   172   173    1
   111   172   175    1
   112    81    82    1
   113   224   218    1
   114   224   223    1
   115    67    68    1
   116   124   125    1
   117   124   121    1
   118    65    66    2
   119   173   174    2
   120   218   219    1
   121   125   126    1
   122    85    82    1
   123    82    83    1
   124   126   120    1
   125   175   176    1
   126   190   189    1
   127    90    87    1
   128   110   109    1
   129   204   203    1
   130   204   207    1
   131   121   120    1
   132   121   122    1
   133   223   222    1
   134   120   114   am
   135   107   106    2
   136   189   188   ar
   137   189   187   ar
   138    68    69   ar
   139    68    70   ar
   140   188   186   ar
   141   108   109    1
   142   108   105    1
   143   219   222    1
   144   219   220    1
   145   220   221    2
   146   109   111    1
   147   187   185   ar
   148   114   115    2
   149   114   113    1
   150    69    71   ar
   151    87    86    1
   152    87    88    1
   153    83    84    2
   154   106   105    1
   155   106   112   am
   156   176   178   am
   157   176   177    2
   158   207   208    1
   159   179   180    1
   160   186   184   ar
   161   209   208    1
   162   208   210    1
   163   122   123    2
   164   113   112    1
   165   113   116    1
   166   194   193    2
   167    70    72   ar
   168   105   104    1
   169   185   184   ar
   170   180   183    1
   171   180   181    1
   172   184   183    1
   173   200   198   ar
   174   200   201   ar
   175   202   201    1
   176   193   192    1
   177    71    72   ar
   178    88    89    2
   179    88    97   am
   180   198   196   ar
   181   135   133   ar
   182   135   137   ar
   183   182   181    2
   184   201   199   ar
   185   119   117    1
   186   116   117    1
   187    97    98    1
   188   133   132   ar
   189   137   136   ar
   190   102   101    1
   191   117   118    1
   192   196   195    1
   193   196   197   ar
   194   199   197   ar
   195   192   195    1
   196   192   191    1
   197   145   144    1
   198   144   143    1
   199    98   101    1
   200    98    99    1
   201   101   103    1
   202   132   131    1
   203   132   134   ar
   204   143   142    1
   205   136   134   ar
   206   130   129    2
   207   131   128    1
   208   128   129    1
   209   128   127    1
   210    99   100    2
   211   142   139    1
   212   141   140    2
   213   139   140    1
   214   139   138    1
