@<TRIPOS>MOLECULE
tmp/2prmA01.pdb
 103 98 0 0 0
SMALL
GASTEIGER

@<TRIPOS>ATOM
      1  N         50.7540   36.3560    8.6120 N.3    71  LYS71      -0.1245
      2  CA        50.4670   35.0810    9.2170 C.3    71  LYS71       0.1561
      3  C         51.4400   34.6290   10.3030 C.2    71  LYS71       0.2260
      4  O         51.0420   33.8780   11.1920 O.2    71  LYS71      -0.2867
      5  CB        50.3920   34.0120    8.1250 C.3    71  LYS71       0.0271
      6  CG        48.9840   33.7520    7.6350 C.3    71  LYS71       0.0035
      7  CD        48.9150   32.5780    6.6530 C.3    71  LYS71       0.0206
      8  CE        47.6390   32.6140    5.8300 C.3    71  LYS71       0.1093
      9  NZ        46.4150   32.5550    6.7180 N.3    71  LYS71      -0.1314
     10  N         46.4050   33.8480   11.4260 N.3    91  SER91      -0.1217
     11  CA        46.1130   32.6930   12.2660 C.3    91  SER91       0.1889
     12  C         47.3280   31.7940   12.4180 C.2    91  SER91       0.2288
     13  O         47.9380   31.3650   11.4520 O.2    91  SER91      -0.2866
     14  CB        44.9170   31.9320   11.7770 C.3    91  SER91       0.2089
     15  OG        43.8140   32.7820   11.8410 O.3    91  SER91      -0.2183
     16  N         40.5530   32.9350   -1.1970 N.3   116  ASN116     -0.1240
     17  CA        41.7010   32.1920   -0.7240 C.3   116  ASN116      0.1653
     18  C         41.2730   30.9150   -0.0380 C.2   116  ASN116      0.2266
     19  O         40.3000   30.9250    0.7110 O.2   116  ASN116     -0.2867
     20  CB        42.5240   33.0670    0.2260 C.3   116  ASN116      0.1155
     21  CG        41.9180   33.1690    1.6050 C.2   116  ASN116      0.2627
     22  OD1       42.3310   32.4720    2.5350 O.2   116  ASN116     -0.2716
     23  ND2       40.9340   34.0370    1.7490 N.am  116  ASN116     -0.0877
     24  N         43.8550   29.0070    1.7730 N.3   118  TYR118     -0.1227
     25  CA        45.1540   28.6070    2.3040 C.3   118  TYR118      0.1736
     26  C         44.9700   27.4730    3.2730 C.2   118  TYR118      0.2596
     27  O         45.7780   26.5270    3.2800 O.2   118  TYR118     -0.2718
     28  CB        45.8580   29.7340    3.0540 C.3   118  TYR118      0.0548
     29  CG        46.6420   30.6960    2.1950 C.ar  118  TYR118     -0.0200
     30  CD1       46.1490   31.9650    1.9560 C.ar  118  TYR118     -0.0009
     31  CD2       47.8720   30.3490    1.6280 C.ar  118  TYR118     -0.0009
     32  CE1       46.8370   32.8580    1.2030 C.ar  118  TYR118      0.0417
     33  CE2       48.5600   31.2570    0.8460 C.ar  118  TYR118      0.0417
     34  CZ        48.0290   32.5090    0.6500 C.ar  118  TYR118      0.1957
     35  OH        48.6480   33.4730   -0.1030 O.3   118  TYR118     -0.2866
     36  N         43.9240   27.5710    4.0970 N.am  119  GLY119     -0.1942
     37  CA        43.7380   26.6440    5.1840 C.3   119  GLY119      0.2014
     38  C         44.8340   26.6530    6.2460 C.2   119  GLY119      0.2638
     39  O         45.3460   25.6000    6.5870 O.2   119  GLY119     -0.2714
     40  N         45.1940   27.8170    6.7830 N.am  120  PHE120     -0.1973
     41  CA        46.0500   27.8800    7.9720 C.3   120  PHE120      0.1639
     42  C         47.4140   27.3150    7.6880 C.2   120  PHE120      0.2290
     43  O         47.7980   26.2930    8.2790 O.2   120  PHE120     -0.2864
     44  CB        45.4660   27.0670    9.1390 C.3   120  PHE120      0.0560
     45  CG        44.3180   27.7300    9.8660 C.ar  120  PHE120     -0.0200
     46  CD1       43.5560   26.9910   10.7630 C.ar  120  PHE120     -0.0042
     47  CD2       43.9920   29.0810    9.6490 C.ar  120  PHE120     -0.0042
     48  CE1       42.4990   27.5730   11.4460 C.ar  120  PHE120     -0.0003
     49  CE2       42.9430   29.6820   10.3070 C.ar  120  PHE120     -0.0003
     50  CZ        42.1830   28.9330   11.2130 C.ar  120  PHE120     -0.0000
     51  N         39.9070   32.4000   16.3380 N.3   183  ASN183     -0.1240
     52  CA        39.3970   32.4100   14.9960 C.3   183  ASN183      0.1653
     53  C         38.5620   31.1490   14.7330 C.2   183  ASN183      0.2266
     54  O         39.0850   30.0890   14.4600 O.2   183  ASN183     -0.2867
     55  CB        40.5720   32.5550   14.0180 C.3   183  ASN183      0.1155
     56  CG        40.1560   32.4350   12.5800 C.2   183  ASN183      0.2627
     57  OD1       38.9800   32.5350   12.2690 O.2   183  ASN183     -0.2716
     58  ND2       41.1100   32.1950   11.6960 N.am  183  ASN183     -0.0877
     59  N         37.1680   30.6800    9.8940 N.3   186  SER186     -0.1203
     60  CA        37.7770   30.3530    8.6070 C.3   186  SER186      0.2005
     61  C         36.9300   29.3770    7.8130 C.2   186  SER186      0.2461
     62  O         36.4670   28.3480    8.3220 O.2   186  SER186     -0.2732
     63  CB        39.1220   29.7160    8.7640 C.3   186  SER186      0.2103
     64  OG        39.3040   28.8420    7.6640 O.3   186  SER186     -0.2182
     65  N         36.6960   29.7140    6.5610 N.am  187  PRO187     -0.2717
     66  CA        36.0320   28.8030    5.6660 C.3   187  PRO187      0.1535
     67  C         36.8350   27.5460    5.3610 C.2   187  PRO187      0.2598
     68  O         36.2670   26.5120    5.0590 O.2   187  PRO187     -0.2715
     69  CB        35.8660   29.6290    4.3930 C.3   187  PRO187      0.0310
     70  CG        36.7160   30.7840    4.5420 C.3   187  PRO187      0.0237
     71  CD        36.9530   31.0250    5.9610 C.3   187  PRO187      0.0939
     72  N         38.1470   27.6210    5.4460 N.am  188  ASN188     -0.1973
     73  CA        38.9350   26.6120    4.7760 C.3   188  ASN188      0.1688
     74  C         39.4210   25.4170    5.5710 C.2   188  ASN188      0.2292
     75  O         40.2370   24.6490    5.0490 O.2   188  ASN188     -0.2864
     76  CB        40.1180   27.2700    4.0960 C.3   188  ASN188      0.1181
     77  CG        39.7190   28.4370    3.3120 C.2   188  ASN188      0.2629
     78  OD1       39.0580   28.3060    2.2900 O.2   188  ASN188     -0.2716
     79  ND2       40.0910   29.6090    3.7850 N.am  188  ASN188     -0.0877
     80  N         36.4720   35.8950   16.2820 N.3   226  LYS226     -0.1245
     81  CA        36.2300   36.3450   14.9090 C.3   226  LYS226      0.1561
     82  C         35.2200   35.3920   14.2840 C.2   226  LYS226      0.2260
     83  O         35.4590   34.1900   14.2050 O.2   226  LYS226     -0.2867
     84  CB        37.5230   36.3820   14.1210 C.3   226  LYS226      0.0271
     85  CG        37.3330   36.7690   12.7090 C.3   226  LYS226      0.0035
     86  CD        38.5890   37.3960   12.1600 C.3   226  LYS226      0.0206
     87  CE        38.4860   37.6480   10.6800 C.3   226  LYS226      0.1093
     88  NZ        39.8760   37.8270   10.1730 N.3   226  LYS226     -0.1314
     89  N         35.0960   37.1720    9.0870 N.3   255  ASN255     -0.1225
     90  CA        36.0180   36.5490    8.1920 C.3   255  ASN255      0.1785
     91  C         35.4900   36.7140    6.7750 C.2   255  ASN255      0.2597
     92  O         34.5860   37.5150    6.5170 O.2   255  ASN255     -0.2718
     93  CB        36.0620   35.0870    8.5360 C.3   255  ASN255      0.1169
     94  CG        37.4350   34.5790    8.6270 C.2   255  ASN255      0.2627
     95  OD1       38.2660   34.8640    7.7700 O.2   255  ASN255     -0.2716
     96  ND2       37.7080   33.8110    9.6670 N.am  255  ASN255     -0.0877
     97  N         36.0520   35.9400    5.8590 N.am  256  THR256     -0.1953
     98  CA        35.6800   35.9800    4.4440 C.3   256  THR256      0.1897
     99  C         34.3950   35.1930    4.3570 C.2   256  THR256      0.2313
    100  O         33.8910   34.7300    5.3770 O.2   256  THR256     -0.2863
    101  CB        36.7280   35.2920    3.6010 C.3   256  THR256      0.1794
    102  OG1       37.0380   34.0500    4.2160 O.3   256  THR256     -0.2208
    103  CG2       37.9810   36.0920    3.5580 C.3   256  THR256      0.0378
@<TRIPOS>BOND
     1    16    17    1
     2    17    18    1
     3    17    20    1
     4    35    34    1
     5    18    19    2
     6    20    21    1
     7    34    33   ar
     8    34    32   ar
     9    33    31   ar
    10    32    30   ar
    11    21    23   am
    12    21    22    2
    13    31    29   ar
    14    24    25    1
    15    30    29   ar
    16    29    28    1
    17    78    77    2
    18    25    28    1
    19    25    26    1
    20    26    27    2
    21    26    36   am
    22    77    79   am
    23    77    76    1
    24   103   101    1
    25   101   102    1
    26   101    98    1
    27    76    73    1
    28    36    37    1
    29    99    98    1
    30    99   100    2
    31    69    70    1
    32    69    66    1
    33    98    97    1
    34    70    71    1
    35    73    72    1
    36    73    74    1
    37    75    74    2
    38    68    67    2
    39    37    38    1
    40    67    72   am
    41    67    66    1
    42    66    65    1
    43     8     7    1
    44     8     9    1
    45    97    91   am
    46    71    65    1
    47    38    39    2
    48    38    40   am
    49    92    91    2
    50    65    61   am
    51     7     6    1
    52    91    90    1
    53    40    41    1
    54     6     5    1
    55    64    63    1
    56    42    41    1
    57    42    43    2
    58    95    94    2
    59    61    62    2
    60    61    60    1
    61    41    44    1
    62     5     2    1
    63    90    93    1
    64    90    89    1
    65    93    94    1
    66    60    63    1
    67    60    59    1
    68     1     2    1
    69    94    96   am
    70    44    45    1
    71     2     3    1
    72    47    45   ar
    73    47    49   ar
    74    45    46   ar
    75    88    87    1
    76     3     4    2
    77    49    50   ar
    78    87    86    1
    79    46    48   ar
    80    50    48   ar
    81    10    11    1
    82    13    12    2
    83    58    56   am
    84    14    15    1
    85    14    11    1
    86    86    85    1
    87    11    12    1
    88    57    56    2
    89    56    55    1
    90    85    84    1
    91    55    52    1
    92    84    81    1
    93    83    82    2
    94    82    81    1
    95    54    53    2
    96    53    52    1
    97    81    80    1
    98    52    51    1
