@<TRIPOS>MOLECULE
tmp/2prrD02.pdb
 110 109 0 0 0
SMALL
GASTEIGER

@<TRIPOS>ATOM
      1  N         18.6340  -39.5660   -1.1570 N.3    36  PRO36      -0.2116
      2  CA        17.9340  -38.5820   -0.3470 C.3    36  PRO36       0.1372
      3  C         18.1160  -38.9350    1.1100 C.2    36  PRO36       0.2244
      4  O         18.0640  -40.0980    1.4830 O.2    36  PRO36      -0.2868
      5  CB        16.4900  -38.7550   -0.7670 C.3    36  PRO36       0.0268
      6  CG        16.5990  -39.1780   -2.1930 C.3    36  PRO36       0.0207
      7  CD        17.7940  -40.0540   -2.2590 C.3    36  PRO36       0.0892
      8  N         16.3010  -38.7800    3.7140 N.3    38  VAL38      -0.1231
      9  CA        15.1900  -39.3810    4.4690 C.3    38  VAL38       0.1692
     10  C         15.4410  -40.9020    4.6180 C.2    38  VAL38       0.2592
     11  O         15.1340  -41.4770    5.6640 O.2    38  VAL38      -0.2718
     12  CB        13.7950  -39.1020    3.7820 C.3    38  VAL38       0.0266
     13  CG1       13.7070  -39.7730    2.3870 C.3    38  VAL38       0.0020
     14  CG2       12.5970  -39.5350    4.6730 C.3    38  VAL38       0.0020
     15  N         16.0030  -41.5440    3.5840 N.am   39  PHE39      -0.1976
     16  CA        16.2690  -42.9840    3.6450 C.3    39  PHE39       0.1639
     17  C         17.3470  -43.3320    4.6700 C.2    39  PHE39       0.2290
     18  O         17.2090  -44.2760    5.4300 O.2    39  PHE39      -0.2864
     19  CB        16.7300  -43.5420    2.2790 C.3    39  PHE39       0.0560
     20  CG        15.6880  -43.4760    1.1950 C.ar   39  PHE39      -0.0200
     21  CD1       14.7580  -44.4870    1.0440 C.ar   39  PHE39      -0.0042
     22  CD2       15.6540  -42.4030    0.3020 C.ar   39  PHE39      -0.0042
     23  CE1       13.7920  -44.4190    0.0220 C.ar   39  PHE39      -0.0003
     24  CE2       14.6860  -42.3300   -0.7070 C.ar   39  PHE39      -0.0003
     25  CZ        13.7630  -43.3390   -0.8400 C.ar   39  PHE39      -0.0000
     26  N          7.2510  -46.7530    6.8320 N.3    52  PHE52      -0.1227
     27  CA         7.1740  -45.4100    6.2580 C.3    52  PHE52       0.1736
     28  C          7.1300  -45.5140    4.7430 C.2    52  PHE52       0.2595
     29  O          6.2070  -45.0120    4.0980 O.2    52  PHE52      -0.2718
     30  CB         8.4110  -44.5930    6.6960 C.3    52  PHE52       0.0547
     31  CG         8.4100  -43.1410    6.2540 C.ar   52  PHE52      -0.0202
     32  CD1        8.9340  -42.7670    5.0310 C.ar   52  PHE52      -0.0042
     33  CD2        7.9160  -42.1470    7.0950 C.ar   52  PHE52      -0.0042
     34  CE1        8.9410  -41.4550    4.6380 C.ar   52  PHE52      -0.0003
     35  CE2        7.9280  -40.8340    6.7150 C.ar   52  PHE52      -0.0003
     36  CZ         8.4390  -40.4790    5.4910 C.ar   52  PHE52      -0.0000
     37  N          8.1270  -46.1670    4.1700 N.am   53  PHE53      -0.1976
     38  CA         8.1850  -46.2350    2.7190 C.3    53  PHE53       0.1639
     39  C          7.0620  -47.0200    2.0960 C.2    53  PHE53       0.2290
     40  O          6.5920  -46.6810    1.0310 O.2    53  PHE53      -0.2864
     41  CB         9.5720  -46.6300    2.2360 C.3    53  PHE53       0.0560
     42  CG        10.5700  -45.5490    2.4550 C.ar   53  PHE53      -0.0200
     43  CD1       10.5850  -44.4400    1.6250 C.ar   53  PHE53      -0.0042
     44  CD2       11.4340  -45.5830    3.5280 C.ar   53  PHE53      -0.0042
     45  CE1       11.4560  -43.4200    1.8570 C.ar   53  PHE53      -0.0003
     46  CE2       12.3150  -44.5620    3.7520 C.ar   53  PHE53      -0.0003
     47  CZ        12.3270  -43.4840    2.9170 C.ar   53  PHE53      -0.0000
     48  N          4.3290  -44.5520    2.1480 N.3    56  HIS56      -0.1241
     49  CA         4.6320  -43.5690    1.1250 C.3    56  HIS56       0.1621
     50  C          4.2840  -44.0810   -0.2940 C.2    56  HIS56       0.2264
     51  O          3.6300  -43.3950   -1.0960 O.2    56  HIS56      -0.2867
     52  CB         6.1100  -43.1650    1.1840 C.3    56  HIS56       0.0745
     53  CG         6.5240  -42.2750    0.0510 C.ar   56  HIS56       0.0817
     54  ND1        7.0690  -42.7620   -1.1200 N.ar   56  HIS56      -0.2268
     55  CD2        6.4030  -40.9380   -0.1200 C.ar   56  HIS56       0.1154
     56  CE1        7.2920  -41.7590   -1.9480 C.ar   56  HIS56       0.1986
     57  NE2        6.9000  -40.6410   -1.3630 N.ar   56  HIS56      -0.2212
     58  N         13.1900  -30.0060    5.3460 N.3    84  TYR84      -0.1227
     59  CA        13.5190  -31.1560    4.4350 C.3    84  TYR84       0.1736
     60  C         12.4480  -31.3330    3.3670 C.2    84  TYR84       0.2595
     61  O         12.7430  -31.3490    2.1790 O.2    84  TYR84      -0.2718
     62  CB        13.7450  -32.5160    5.1680 C.3    84  TYR84       0.0548
     63  CG        14.0130  -33.6960    4.1740 C.ar   84  TYR84      -0.0200
     64  CD1       12.9690  -34.3930    3.5690 C.ar   84  TYR84      -0.0009
     65  CD2       15.2970  -34.0630    3.8390 C.ar   84  TYR84      -0.0009
     66  CE1       13.2090  -35.4450    2.6180 C.ar   84  TYR84       0.0417
     67  CE2       15.5500  -35.1410    2.8920 C.ar   84  TYR84       0.0417
     68  CZ        14.4880  -35.7980    2.3040 C.ar   84  TYR84       0.1957
     69  OH        14.7170  -36.8360    1.3980 O.3    84  TYR84      -0.2866
     70  N         11.1970  -31.4400    3.7950 N.am   85  CYS85      -0.1970
     71  CA        10.0940  -31.7280    2.8840 C.3    85  CYS85       0.1712
     72  C          9.7660  -30.6700    1.8560 C.2    85  CYS85       0.2296
     73  O          9.4820  -30.9810    0.6950 O.2    85  CYS85      -0.2864
     74  CB         8.8360  -32.0740    3.6870 C.3    85  CYS85       0.0983
     75  SG         9.0420  -33.6080    4.5950 S.3    85  CYS85      -0.0798
     76  N         10.5180  -31.9890   -1.8220 N.3    89  HIS89      -0.1241
     77  CA         9.3410  -32.0900   -2.6660 C.3    89  HIS89       0.1621
     78  C          9.0750  -30.9080   -3.5700 C.2    89  HIS89       0.2264
     79  O          8.2190  -30.9840   -4.4380 O.2    89  HIS89      -0.2867
     80  CB         8.1220  -32.5100   -1.8240 C.3    89  HIS89       0.0745
     81  CG         8.3250  -33.8510   -1.2260 C.ar   89  HIS89       0.0817
     82  ND1        8.2490  -35.0030   -1.9780 N.ar   89  HIS89      -0.2268
     83  CD2        8.7720  -34.2260   -0.0080 C.ar   89  HIS89       0.1154
     84  CE1        8.5740  -36.0360   -1.2250 C.ar   89  HIS89       0.1986
     85  NE2        8.8930  -35.5920   -0.0260 N.ar   89  HIS89      -0.2212
     86  N         10.9780  -32.0890   -6.7060 N.3    92  ILE92      -0.1245
     87  CA        10.2090  -33.1230   -7.3790 C.3    92  ILE92       0.1561
     88  C          8.9780  -32.5240   -8.0530 C.2    92  ILE92       0.2260
     89  O          8.6200  -32.9350   -9.1380 O.2    92  ILE92      -0.2867
     90  CB         9.8200  -34.2210   -6.3870 C.3    92  ILE92       0.0252
     91  CG1       11.0810  -34.8260   -5.7370 C.3    92  ILE92       0.0019
     92  CG2        9.0300  -35.3160   -7.0910 C.3    92  ILE92       0.0019
     93  CD1       10.8220  -35.5600   -4.4440 C.3    92  ILE92       0.0001
     94  N          2.3840  -37.0290    5.1080 N.3   163  PHE163     -0.1241
     95  CA         3.4330  -36.0480    5.1640 C.3   163  PHE163      0.1605
     96  C          3.3790  -35.1240    6.4300 C.2   163  PHE163      0.2264
     97  O          4.2910  -34.4880    6.7390 O.2   163  PHE163     -0.2867
     98  CB         3.5420  -35.2890    3.8560 C.3   163  PHE163      0.0534
     99  CG         4.0930  -36.1420    2.6920 C.ar  163  PHE163     -0.0203
    100  CD1        5.4310  -36.2370    2.4570 C.ar  163  PHE163     -0.0042
    101  CD2        3.2570  -36.8420    1.8820 C.ar  163  PHE163     -0.0042
    102  CE1        5.9270  -37.0380    1.4020 C.ar  163  PHE163     -0.0003
    103  CE2        3.8060  -37.6460    0.7870 C.ar  163  PHE163     -0.0003
    104  CZ         5.1060  -37.7050    0.6120 C.ar  163  PHE163     -0.0000
    105  N          5.6350  -37.4410    8.2830 N.3   166  SER166     -0.1217
    106  CA         6.9530  -37.1920    7.7320 C.3   166  SER166      0.1889
    107  C          7.5480  -35.8480    8.2050 C.2   166  SER166      0.2288
    108  O          8.6990  -35.7760    8.6230 O.2   166  SER166     -0.2866
    109  CB         6.8300  -37.2030    6.2270 C.3   166  SER166      0.2089
    110  OG         8.0810  -37.0530    5.6210 O.3   166  SER166     -0.2183
@<TRIPOS>BOND
     1    89    88    2
     2    88    87    1
     3    87    86    1
     4    87    90    1
     5    92    90    1
     6    90    91    1
     7    91    93    1
     8    79    78    2
     9    78    77    1
    10    77    80    1
    11    77    76    1
    12     7     6    1
    13     7     1    1
    14     6     5    1
    15    82    81   ar
    16    82    84   ar
    17    56    57   ar
    18    56    54   ar
    19    80    81    1
    20    57    55   ar
    21    81    83   ar
    22    84    85   ar
    23     1     2    1
    24    54    53   ar
    25    51    50    2
    26    25    24   ar
    27    25    23   ar
    28     5     2    1
    29    24    22   ar
    30     2     3    1
    31    50    49    1
    32    55    53   ar
    33    85    83   ar
    34    23    21   ar
    35    53    52    1
    36    22    20   ar
    37   104   103   ar
    38   104   102   ar
    39    73    72    2
    40   103   101   ar
    41    40    39    2
    42    21    20   ar
    43     3     4    2
    44    49    52    1
    45    49    48    1
    46    20    19    1
    47    69    68    1
    48   102   100   ar
    49    43    45   ar
    50    43    42   ar
    51    72    71    1
    52    45    47   ar
    53   101    99   ar
    54    39    38    1
    55    61    60    2
    56    41    42    1
    57    41    38    1
    58    19    16    1
    59    68    66   ar
    60    68    67   ar
    61    13    12    1
    62    42    44   ar
    63   100    99   ar
    64    66    64   ar
    65    99    98    1
    66    38    37    1
    67    71    74    1
    68    71    70    1
    69    67    65   ar
    70    47    46   ar
    71    60    70   am
    72    60    59    1
    73    44    46   ar
    74    64    63   ar
    75    15    16    1
    76    15    10   am
    77    16    17    1
    78    74    75    1
    79     8     9    1
    80    12     9    1
    81    12    14    1
    82    65    63   ar
    83    98    95    1
    84    29    28    2
    85    37    28   am
    86    63    62    1
    87    59    62    1
    88    59    58    1
    89     9    10    1
    90    10    11    2
    91    34    32   ar
    92    34    36   ar
    93    17    18    2
    94    28    27    1
    95    32    31   ar
    96    94    95    1
    97    95    96    1
    98    36    35   ar
    99   110   109    1
   100   109   106    1
   101    31    30    1
   102    31    33   ar
   103    27    30    1
   104    27    26    1
   105    96    97    2
   106    35    33   ar
   107   106   107    1
   108   106   105    1
   109   107   108    2
