@<TRIPOS>MOLECULE
tmp/2prrD00.pdb
 72 65 0 0 0
SMALL
GASTEIGER

@<TRIPOS>ATOM
      1  N          4.0870  -29.9450   -0.7200 N.3    74  VAL74      -0.1245
      2  CA         4.7940  -28.7000   -0.5660 C.3    74  VAL74       0.1561
      3  C          3.9780  -27.6630    0.2750 C.2    74  VAL74       0.2260
      4  O          4.5750  -26.9970    1.1100 O.2    74  VAL74      -0.2867
      5  CB         5.2640  -28.1140   -1.9240 C.3    74  VAL74       0.0252
      6  CG1        6.0230  -26.8480   -1.7130 C.3    74  VAL74       0.0019
      7  CG2        6.1870  -29.1280   -2.6940 C.3    74  VAL74       0.0019
      8  N          9.7290  -29.4250    2.2980 N.3    86  VAL86      -0.1231
      9  CA         9.4810  -28.3280    1.3980 C.3    86  VAL86       0.1692
     10  C         10.5200  -28.3170    0.2680 C.2    86  VAL86       0.2591
     11  O         10.1800  -28.1590   -0.9040 O.2    86  VAL86      -0.2718
     12  CB         9.5830  -26.9980    2.1660 C.3    86  VAL86       0.0266
     13  CG1        9.7600  -25.8650    1.2340 C.3    86  VAL86       0.0020
     14  CG2        8.3660  -26.7680    3.0360 C.3    86  VAL86       0.0020
     15  N         11.7860  -28.4440    0.6580 N.am   87  VAL87      -0.1980
     16  CA        12.8990  -28.3900   -0.2610 C.3    87  VAL87       0.1595
     17  C         12.9710  -29.6320   -1.1680 C.2    87  VAL87       0.2287
     18  O         13.1210  -29.5040   -2.3620 O.2    87  VAL87      -0.2864
     19  CB        14.2390  -28.1500    0.5030 C.3    87  VAL87       0.0276
     20  CG1       15.4460  -28.2950   -0.4240 C.3    87  VAL87       0.0022
     21  CG2       14.2260  -26.7320    1.1660 C.3    87  VAL87       0.0022
     22  N          9.7720  -29.8010   -3.3620 N.3    90  GLY90      -0.1225
     23  CA         9.6670  -28.6880   -4.2870 C.3    90  GLY90       0.1811
     24  C         10.4220  -29.0920   -5.5440 C.2    90  GLY90       0.2280
     25  O          9.9890  -28.8340   -6.6500 O.2    90  GLY90      -0.2866
     26  N          8.7350  -29.4150   -9.2220 N.3    94  ARG94      -0.1245
     27  CA         9.2470  -28.6840  -10.3880 C.3    94  ARG94       0.1563
     28  C          9.5490  -29.6150  -11.5440 C.2    94  ARG94       0.2260
     29  O          9.2450  -29.3100  -12.6730 O.2    94  ARG94      -0.2867
     30  CB        10.5070  -27.8860  -10.0460 C.3    94  ARG94       0.0307
     31  CG        10.2320  -26.6430   -9.1710 C.3    94  ARG94       0.0489
     32  CD        11.4670  -25.8050   -9.0690 C.3    94  ARG94       0.2205
     33  NE        12.5770  -26.4830   -8.4020 N.pl3  94  ARG94      -0.0865
     34  CZ        12.8050  -26.4160   -7.0980 C.cat  94  ARG94       0.5346
     35  NH1       12.0060  -25.7100   -6.2990 N.pl3  94  ARG94       0.1354
     36  NH2       13.8320  -27.0520   -6.5790 N.pl3  94  ARG94       0.1354
     37  N          6.8290  -24.4560   -7.4470 N.3   103  ALA103     -0.1231
     38  CA         7.0940  -24.9620   -6.1100 C.3   103  ALA103      0.1694
     39  C          7.3990  -23.8570   -5.1250 C.2   103  ALA103      0.2592
     40  O          6.9920  -23.9270   -3.9710 O.2   103  ALA103     -0.2718
     41  CB         8.2210  -25.9630   -6.1300 C.3   103  ALA103      0.0304
     42  N          8.1120  -22.8350   -5.5550 N.am  104  ASP104     -0.1974
     43  CA         8.4030  -21.7120   -4.6350 C.3   104  ASP104      0.1709
     44  C          7.1300  -20.9250   -4.2850 C.2   104  ASP104      0.2293
     45  O          6.9980  -20.4360   -3.1710 O.2   104  ASP104     -0.2864
     46  CB         9.4730  -20.7620   -5.1960 C.3   104  ASP104      0.1436
     47  CG        10.7480  -21.4860   -5.6360 C.2   104  ASP104      0.3671
     48  OD1       10.6700  -22.6280   -6.1620 O.co2 104  ASP104     -0.2456
     49  OD2       11.8270  -20.8820   -5.4940 O.co2 104  ASP104     -0.2456
     50  N          5.1000  -22.9550   -1.8550 N.3   107  ALA107     -0.1231
     51  CA         5.7140  -22.9590   -0.5440 C.3   107  ALA107      0.1694
     52  C          5.4770  -21.6290    0.1970 C.2   107  ALA107      0.2591
     53  O          5.2390  -21.6440    1.3950 O.2   107  ALA107     -0.2718
     54  CB         7.1520  -23.2480   -0.6390 C.3   107  ALA107      0.0304
     55  N          5.4570  -20.5120   -0.5200 N.am  108  VAL108     -0.1980
     56  CA         5.3190  -19.1900    0.1170 C.3   108  VAL108      0.1595
     57  C          3.8590  -18.8010    0.3360 C.2   108  VAL108      0.2287
     58  O          3.4630  -18.4430    1.4460 O.2   108  VAL108     -0.2864
     59  CB         6.1060  -18.1300   -0.6930 C.3   108  VAL108      0.0276
     60  CG1        6.2150  -16.8750    0.0640 C.3   108  VAL108      0.0022
     61  CG2        7.5720  -18.6290   -0.9990 C.3   108  VAL108      0.0022
     62  N         14.9890  -26.2350  -11.5200 N.3   183  ARG183     -0.1245
     63  CA        14.9390  -24.7890  -11.6950 C.3   183  ARG183      0.1563
     64  C         15.3280  -24.3390  -13.1170 C.2   183  ARG183      0.2260
     65  O         15.0020  -23.2270  -13.5300 O.2   183  ARG183     -0.2867
     66  CB        15.8090  -24.1070  -10.6450 C.3   183  ARG183      0.0307
     67  CG        15.4050  -24.4440   -9.2340 C.3   183  ARG183      0.0489
     68  CD        16.0720  -23.5110   -8.2440 C.3   183  ARG183      0.2205
     69  NE        15.5180  -23.6210   -6.8930 N.pl3 183  ARG183     -0.0865
     70  CZ        14.3380  -23.1260   -6.5110 C.cat 183  ARG183      0.5346
     71  NH1       13.5580  -22.4780   -7.3720 N.pl3 183  ARG183      0.1354
     72  NH2       13.9370  -23.2800   -5.2510 N.pl3 183  ARG183      0.1354
@<TRIPOS>BOND
     1    65    64    2
     2    64    63    1
     3    29    28    2
     4    63    62    1
     5    63    66    1
     6    28    27    1
     7    66    67    1
     8    27    30    1
     9    27    26    1
    10    30    31    1
    11    67    68    1
    12    31    32    1
    13    32    33    1
    14    33    34    2
    15    68    69    1
    16    37    38    1
    17    71    70    1
    18    34    36    1
    19    34    35    1
    20    69    70    2
    21    25    24    2
    22    70    72    1
    23    48    47   ar
    24    41    38    1
    25    38    39    1
    26    47    49   ar
    27    47    46    1
    28    42    39   am
    29    42    43    1
    30    24    23    1
    31    46    43    1
    32    39    40    2
    33    43    44    1
    34    23    22    1
    35    44    45    2
    36     7     5    1
    37    18    17    2
    38     5     6    1
    39     5     2    1
    40    50    51    1
    41    17    16    1
    42    61    59    1
    43    11    10    2
    44     1     2    1
    45    59    60    1
    46    59    56    1
    47    54    51    1
    48     2     3    1
    49    51    52    1
    50    55    56    1
    51    55    52   am
    52    20    19    1
    53    16    19    1
    54    16    15    1
    55    56    57    1
    56    52    53    2
    57    10    15   am
    58    10     9    1
    59     3     4    2
    60    57    58    2
    61    19    21    1
    62    13    12    1
    63     9    12    1
    64     9     8    1
    65    12    14    1
