@<TRIPOS>MOLECULE
tmp/2przA00.pdb
 139 137 0 0 0
SMALL
GASTEIGER

@<TRIPOS>ATOM
      1  N         69.5870   39.0870   14.8980 N.3    25  LEU25      -0.1231
      2  CA        70.8370   38.8840   15.6360 C.3    25  LEU25       0.1693
      3  C         71.6960   40.1470   15.6610 C.2    25  LEU25       0.2592
      4  O         71.4050   41.1150   14.9490 O.2    25  LEU25      -0.2718
      5  CB        71.6190   37.7040   15.0410 C.3    25  LEU25       0.0284
      6  CG        70.8870   36.3600   14.9240 C.3    25  LEU25       0.0019
      7  CD1       71.8540   35.2760   14.5020 C.3    25  LEU25       0.0001
      8  CD2       70.1730   35.9650   16.2230 C.3    25  LEU25       0.0001
      9  N         72.7430   40.1420   16.4860 N.am   26  LYS26      -0.1966
     10  CA        73.6940   41.2540   16.5230 C.3    26  LYS26       0.1728
     11  C         74.2290   41.5900   15.1370 C.2    26  LYS26       0.2616
     12  O         74.3810   42.7600   14.8010 O.2    26  LYS26      -0.2715
     13  CB        74.8800   40.9620   17.4500 C.3    26  LYS26       0.0311
     14  CG        74.8280   41.6750   18.7900 C.3    26  LYS26       0.0038
     15  CD        76.2150   42.1450   19.2630 C.3    26  LYS26       0.0206
     16  CE        77.1570   40.9870   19.5910 C.3    26  LYS26       0.1093
     17  NZ        78.0620   40.6320   18.4550 N.3    26  LYS26      -0.1314
     18  N         74.5100   40.5540   14.3450 N.am   27  SER27      -0.1950
     19  CA        75.1040   40.7050   13.0150 C.3    27  SER27       0.1924
     20  C         74.1110   41.1960   11.9620 C.2    27  SER27       0.2314
     21  O         74.5000   41.4830   10.8280 O.2    27  SER27      -0.2863
     22  CB        75.7090   39.3780   12.5540 C.3    27  SER27       0.2116
     23  OG        74.7570   38.3330   12.6570 O.3    27  SER27      -0.2180
     24  N         67.0480   31.2840   18.8350 N.3    34  PHE34      -0.1227
     25  CA        67.9170   32.1130   19.6570 C.3    34  PHE34       0.1736
     26  C         68.2850   31.3560   20.9140 C.2    34  PHE34       0.2595
     27  O         67.4440   30.6740   21.5080 O.2    34  PHE34      -0.2718
     28  CB        67.2300   33.4410   20.0020 C.3    34  PHE34       0.0547
     29  CG        68.1600   34.4920   20.5600 C.ar   34  PHE34      -0.0202
     30  CD1       68.2020   34.7480   21.9280 C.ar   34  PHE34      -0.0042
     31  CD2       68.9810   35.2340   19.7170 C.ar   34  PHE34      -0.0042
     32  CE1       69.0590   35.7240   22.4530 C.ar   34  PHE34      -0.0003
     33  CE2       69.8350   36.2140   20.2290 C.ar   34  PHE34      -0.0003
     34  CZ        69.8770   36.4540   21.6060 C.ar   34  PHE34      -0.0000
     35  N         69.5540   31.4640   21.2970 N.am   35  PHE35      -0.1962
     36  CA        70.0400   30.8640   22.5270 C.3    35  PHE35       0.1771
     37  C         70.4040   31.9820   23.4910 C.2    35  PHE35       0.2620
     38  O         71.3220   32.7620   23.2290 O.2    35  PHE35      -0.2715
     39  CB        71.2450   29.9630   22.2520 C.3    35  PHE35       0.0574
     40  CG        71.5490   28.9960   23.3640 C.ar   35  PHE35      -0.0200
     41  CD1       70.9970   27.7210   23.3580 C.ar   35  PHE35      -0.0042
     42  CD2       72.3910   29.3600   24.4110 C.ar   35  PHE35      -0.0042
     43  CE1       71.2690   26.8180   24.3820 C.ar   35  PHE35      -0.0003
     44  CE2       72.6710   28.4670   25.4450 C.ar   35  PHE35      -0.0003
     45  CZ        72.1090   27.1910   25.4280 C.ar   35  PHE35      -0.0000
     46  N         69.6570   32.0580   24.5900 N.am   36  ASN36      -0.1958
     47  CA        69.8400   33.0780   25.6080 C.3    36  ASN36       0.1819
     48  C         70.4030   32.4390   26.8790 C.2    36  ASN36       0.2621
     49  O         69.6570   31.9210   27.7080 O.2    36  ASN36      -0.2715
     50  CB        68.5030   33.7780   25.8880 C.3    36  ASN36       0.1195
     51  CG        68.6610   35.0650   26.6860 C.2    36  ASN36       0.2630
     52  OD1       69.7100   35.3290   27.2830 O.2    36  ASN36      -0.2716
     53  ND2       67.6060   35.8750   26.7030 N.am   36  ASN36      -0.0877
     54  N         71.7270   32.4760   27.0160 N.am   37  LEU37      -0.1977
     55  CA        72.4070   31.8650   28.1580 C.3    37  LEU37       0.1596
     56  C         72.0300   32.5520   29.4690 C.2    37  LEU37       0.2287
     57  O         72.0680   31.9350   30.5350 O.2    37  LEU37      -0.2864
     58  CB        73.9300   31.8800   27.9640 C.3    37  LEU37       0.0297
     59  CG        74.7170   30.8980   28.8410 C.3    37  LEU37       0.0022
     60  CD1       74.2670   29.4640   28.5960 C.3    37  LEU37       0.0001
     61  CD2       76.2090   31.0300   28.6030 C.3    37  LEU37       0.0001
     62  N         82.7080   32.9180   26.7150 N.3   122  ASP122     -0.1225
     63  CA        81.5540   33.7020   26.2890 C.3   122  ASP122      0.1805
     64  C         80.3760   32.7620   26.0290 C.2   122  ASP122      0.2598
     65  O         80.5000   31.5520   26.1880 O.2   122  ASP122     -0.2718
     66  CB        81.9000   34.5460   25.0520 C.3   122  ASP122      0.1424
     67  CG        81.1100   35.8490   24.9740 C.2   122  ASP122      0.3668
     68  OD1       80.2650   36.1190   25.8560 O.co2 122  ASP122     -0.2456
     69  OD2       81.3420   36.6210   24.0200 O.co2 122  ASP122     -0.2456
     70  N         79.2360   33.3250   25.6440 N.am  123  ASP123     -0.1960
     71  CA        78.0020   32.5620   25.5710 C.3   123  ASP123      0.1840
     72  C         77.8110   31.8460   24.2410 C.2   123  ASP123      0.2622
     73  O         77.6380   30.6330   24.2060 O.2   123  ASP123     -0.2715
     74  CB        76.7860   33.4400   25.9300 C.3   123  ASP123      0.1450
     75  CG        76.7030   34.7380   25.1130 C.2   123  ASP123      0.3671
     76  OD1       77.6200   35.0650   24.3230 O.co2 123  ASP123     -0.2456
     77  OD2       75.6920   35.4500   25.2730 O.co2 123  ASP123     -0.2456
     78  N         77.8500   32.5990   23.1490 N.am  124  VAL124     -0.1963
     79  CA        77.4710   32.0830   21.8450 C.3   124  VAL124      0.1727
     80  C         78.3300   32.7750   20.7880 C.2   124  VAL124      0.2616
     81  O         78.6350   33.9670   20.9180 O.2   124  VAL124     -0.2715
     82  CB        75.9480   32.3320   21.5610 C.3   124  VAL124      0.0290
     83  CG1       75.5630   31.8860   20.1480 C.3   124  VAL124      0.0023
     84  CG2       75.0570   31.6140   22.5890 C.3   124  VAL124      0.0023
     85  N         78.7340   32.0190   19.7640 N.am  125  MET125     -0.1963
     86  CA        79.4070   32.5920   18.5920 C.3   125  MET125      0.1736
     87  C         78.5580   32.4360   17.3310 C.2   125  MET125      0.2617
     88  O         78.0880   31.3360   17.0160 O.2   125  MET125     -0.2715
     89  CB        80.7870   31.9670   18.3720 C.3   125  MET125      0.0427
     90  CG        81.6540   32.7390   17.3630 C.3   125  MET125      0.0599
     91  SD        83.3790   32.2150   17.2130 S.3   125  MET125     -0.1393
     92  CE        83.8380   31.9910   18.9180 C.3   125  MET125      0.0692
     93  N         78.3740   33.5480   16.6210 N.am  126  THR126     -0.1937
     94  CA        77.6040   33.5690   15.3860 C.3   126  THR126      0.2028
     95  C         78.5460   33.9390   14.2480 C.2   126  THR126      0.2642
     96  O         78.9750   33.0670   13.4820 O.2   126  THR126     -0.2714
     97  CB        76.4400   34.5740   15.4790 C.3   126  THR126      0.1808
     98  OG1       75.6870   34.3100   16.6640 O.3   126  THR126     -0.2208
     99  CG2       75.5160   34.4700   14.2630 C.3   126  THR126      0.0379
    100  N         78.8880   35.2240   14.1710 N.am  127  ALA127     -0.1963
    101  CA        79.8320   35.7290   13.1830 C.3   127  ALA127      0.1728
    102  C         81.2200   35.9320   13.7830 C.2   127  ALA127      0.2617
    103  O         82.1740   36.2160   13.0580 O.2   127  ALA127     -0.2715
    104  CB        79.3070   37.0300   12.5570 C.3   127  ALA127      0.0334
    105  N         81.3300   35.7810   15.1050 N.am  128  GLY128     -0.1940
    106  CA        82.6170   35.8920   15.7950 C.3   128  GLY128      0.2014
    107  C         82.9880   37.3000   16.2330 C.2   128  GLY128      0.2640
    108  O         84.1030   37.5320   16.7060 O.2   128  GLY128     -0.2714
    109  N         82.0510   38.2350   16.0830 N.am  129  THR129     -0.1936
    110  CA        82.2990   39.6450   16.3960 C.3   129  THR129      0.2028
    111  C         82.6870   39.8450   17.8700 C.2   129  THR129      0.2642
    112  O         83.7130   40.4470   18.1690 O.2   129  THR129     -0.2714
    113  CB        81.0930   40.5320   15.9820 C.3   129  THR129      0.1808
    114  OG1       80.9790   40.5180   14.5490 O.3   129  THR129     -0.2208
    115  CG2       81.2760   41.9890   16.4540 C.3   129  THR129      0.0379
    116  N         81.8850   39.2920   18.7730 N.am  130  ALA130     -0.1963
    117  CA        82.1450   39.3960   20.2090 C.3   130  ALA130      0.1728
    118  C         83.5440   38.8880   20.6040 C.2   130  ALA130      0.2616
    119  O         84.2340   39.5340   21.3910 O.2   130  ALA130     -0.2715
    120  CB        81.0570   38.6730   20.9990 C.3   130  ALA130      0.0334
    121  N         83.9730   37.7580   20.0410 N.am  131  ILE131     -0.1977
    122  CA        85.2890   37.1980   20.3880 C.3   131  ILE131      0.1596
    123  C         86.4380   38.0390   19.8220 C.2   131  ILE131      0.2287
    124  O         87.4590   38.2210   20.4870 O.2   131  ILE131     -0.2864
    125  CB        85.4370   35.6760   20.0260 C.3   131  ILE131      0.0276
    126  CG1       84.4120   34.8130   20.7830 C.3   131  ILE131      0.0022
    127  CG2       86.8570   35.1670   20.3070 C.3   131  ILE131      0.0022
    128  CD1       84.5190   34.8130   22.3280 C.3   131  ILE131      0.0001
    129  N         76.9920   28.1960   16.9450 N.3   154  ARG154     -0.1245
    130  CA        75.8890   28.2590   15.9870 C.3   154  ARG154      0.1563
    131  C         76.2790   27.7470   14.5970 C.2   154  ARG154      0.2260
    132  O         75.4150   27.6100   13.7230 O.2   154  ARG154     -0.2867
    133  CB        75.3210   29.6790   15.9080 C.3   154  ARG154      0.0307
    134  CG        74.5170   30.1070   17.1410 C.3   154  ARG154      0.0489
    135  CD        73.9600   31.5330   16.9910 C.3   154  ARG154      0.2205
    136  NE        73.1280   31.6560   15.7970 N.pl3 154  ARG154     -0.0865
    137  CZ        71.8060   31.7970   15.7890 C.cat 154  ARG154      0.5346
    138  NH1       71.1130   31.8680   16.9200 N.pl3 154  ARG154      0.1354
    139  NH2       71.1710   31.8710   14.6260 N.pl3 154  ARG154      0.1354
@<TRIPOS>BOND
     1    21    20    2
     2    20    19    1
     3    22    23    1
     4    22    19    1
     5   104   101    1
     6    19    18    1
     7   103   102    2
     8   101   102    1
     9   101   100    1
    10    96    95    2
    11   132   131    2
    12   102   105   am
    13   100    95   am
    14    95    94    1
    15    99    97    1
    16    18    11   am
    17     7     6    1
    18   114   113    1
    19   131   130    1
    20   139   137    1
    21    12    11    2
    22     1     2    1
    23     6     5    1
    24     6     8    1
    25     4     3    2
    26     5     2    1
    27   105   106    1
    28    11    10    1
    29    94    97    1
    30    94    93    1
    31    97    98    1
    32     2     3    1
    33     3     9   am
    34   137   136    2
    35   137   138    1
    36   106   107    1
    37   136   135    1
    38   133   130    1
    39   133   134    1
    40   113   110    1
    41   113   115    1
    42   130   129    1
    43   109   107   am
    44   109   110    1
    45   107   108    2
    46   110   111    1
    47     9    10    1
    48    10    13    1
    49    93    87   am
    50   135   134    1
    51    88    87    2
    52    91    90    1
    53    91    92    1
    54    87    86    1
    55    90    89    1
    56    13    14    1
    57   111   112    2
    58   111   116   am
    59    89    86    1
    60    17    16    1
    61    86    85    1
    62   116   117    1
    63    14    15    1
    64    24    25    1
    65    15    16    1
    66    25    28    1
    67    25    26    1
    68    31    33   ar
    69    31    29   ar
    70    85    80   am
    71   123   122    1
    72   123   124    2
    73    28    29    1
    74   125   127    1
    75   125   122    1
    76   125   126    1
    77   121   122    1
    78   121   118   am
    79    83    82    1
    80   117   118    1
    81   117   120    1
    82    33    34   ar
    83    29    30   ar
    84   118   119    2
    85   126   128    1
    86    80    81    2
    87    80    79    1
    88    26    35   am
    89    26    27    2
    90    35    36    1
    91    82    79    1
    92    82    84    1
    93    34    32   ar
    94    79    78    1
    95    30    32   ar
    96    39    36    1
    97    39    40    1
    98    36    37    1
    99    78    72   am
   100    38    37    2
   101    41    40   ar
   102    41    43   ar
   103    40    42   ar
   104    37    46   am
   105    69    67   ar
   106    73    72    2
   107    72    71    1
   108    76    75   ar
   109    43    45   ar
   110    42    44   ar
   111    46    47    1
   112    67    66    1
   113    67    68   ar
   114    66    63    1
   115    75    77   ar
   116    75    74    1
   117    45    44   ar
   118    71    70    1
   119    71    74    1
   120    47    50    1
   121    47    48    1
   122    70    64   am
   123    50    51    1
   124    64    65    2
   125    64    63    1
   126    63    62    1
   127    51    53   am
   128    51    52    2
   129    48    54   am
   130    48    49    2
   131    54    55    1
   132    58    55    1
   133    58    59    1
   134    55    56    1
   135    60    59    1
   136    61    59    1
   137    56    57    2
