@<TRIPOS>MOLECULE
tmp/2ps1B02.pdb
 135 133 0 0 0
SMALL
GASTEIGER

@<TRIPOS>ATOM
      1  N         -2.4260  -20.7380    0.5760 N.3    28  LYS28      -0.1231
      2  CA        -1.1760  -20.7150   -0.1870 C.3    28  LYS28       0.1693
      3  C         -0.3950  -22.0180    0.0020 C.2    28  LYS28       0.2592
      4  O          0.2080  -22.5340   -0.9440 O.2    28  LYS28      -0.2718
      5  CB        -0.3160  -19.5020    0.1870 C.3    28  LYS28       0.0285
      6  CG         0.8910  -19.3210   -0.7360 C.3    28  LYS28       0.0035
      7  CD         1.5800  -17.9660   -0.5750 C.3    28  LYS28       0.0206
      8  CE         2.1700  -17.7610    0.8100 C.3    28  LYS28       0.1093
      9  NZ         3.2400  -18.7260    1.1860 N.3    28  LYS28      -0.1314
     10  N         -0.4380  -22.5460    1.2240 N.am   29  SER29      -0.1952
     11  CA         0.2080  -23.8110    1.5780 C.3    29  SER29       0.1924
     12  C         -0.4400  -25.0290    0.9200 C.2    29  SER29       0.2314
     13  O          0.0990  -26.1310    0.9960 O.2    29  SER29      -0.2863
     14  CB         0.2090  -23.9970    3.1000 C.3    29  SER29       0.2116
     15  OG        -1.1140  -23.9720    3.6170 O.3    29  SER29      -0.2180
     16  N        -11.1200  -18.1420    6.2780 N.3    36  PHE36      -0.1241
     17  CA       -10.1160  -17.3400    5.5940 C.3    36  PHE36       0.1605
     18  C        -10.2080  -15.9140    6.1100 C.2    36  PHE36       0.2264
     19  O        -11.2750  -15.3010    6.0740 O.2    36  PHE36      -0.2867
     20  CB       -10.3660  -17.3720    4.0810 C.3    36  PHE36       0.0534
     21  CG        -9.2300  -16.8380    3.2560 C.ar   36  PHE36      -0.0203
     22  CD1       -8.1570  -17.6580    2.9090 C.ar   36  PHE36      -0.0042
     23  CD2       -9.2410  -15.5210    2.8050 C.ar   36  PHE36      -0.0042
     24  CE1       -7.1020  -17.1680    2.1320 C.ar   36  PHE36      -0.0003
     25  CE2       -8.1940  -15.0220    2.0320 C.ar   36  PHE36      -0.0003
     26  CZ        -7.1240  -15.8460    1.6950 C.ar   36  PHE36      -0.0000
     27  N          5.9540   -7.8780    2.4030 N.3    72  PRO72      -0.2102
     28  CA         6.0280   -8.6660    1.1740 C.3    72  PRO72       0.1504
     29  C          4.7750   -8.5370    0.3080 C.2    72  PRO72       0.2576
     30  O          3.6670   -8.4230    0.8340 O.2    72  PRO72      -0.2718
     31  CB         6.2010  -10.1070    1.6750 C.3    72  PRO72       0.0282
     32  CG         5.6680  -10.1130    3.0580 C.3    72  PRO72       0.0208
     33  CD         5.7980   -8.7180    3.6040 C.3    72  PRO72       0.0893
     34  N          4.9620   -8.5400   -1.0110 N.am   73  ALA73      -0.1966
     35  CA         3.8430   -8.5310   -1.9580 C.3    73  ALA73       0.1728
     36  C          2.9430   -9.7540   -1.7260 C.2    73  ALA73       0.2616
     37  O          3.4550  -10.8410   -1.4500 O.2    73  ALA73      -0.2715
     38  CB         4.3770   -8.5270   -3.3930 C.3    73  ALA73       0.0334
     39  N          1.6160   -9.5990   -1.8100 N.am   74  TYR74      -0.1960
     40  CA         0.9520   -8.3270   -2.0990 C.3    74  TYR74       0.1771
     41  C          0.3610   -7.6420   -0.8720 C.2    74  TYR74       0.2619
     42  O          0.4050   -6.4120   -0.7620 O.2    74  TYR74      -0.2715
     43  CB        -0.1460   -8.5270   -3.1480 C.3    74  TYR74       0.0574
     44  CG         0.3870   -8.6070   -4.5560 C.ar   74  TYR74      -0.0198
     45  CD1        0.6500   -7.4470   -5.2860 C.ar   74  TYR74      -0.0009
     46  CD2        0.6410   -9.8400   -5.1560 C.ar   74  TYR74      -0.0009
     47  CE1        1.1500   -7.5060   -6.5760 C.ar   74  TYR74       0.0417
     48  CE2        1.1350   -9.9150   -6.4580 C.ar   74  TYR74       0.0417
     49  CZ         1.3890   -8.7390   -7.1590 C.ar   74  TYR74       0.1957
     50  OH         1.8740   -8.7900   -8.4400 O.3    74  TYR74      -0.2866
     51  N         -0.1970   -8.4340    0.0400 N.am   75  LYS75      -0.1977
     52  CA        -0.9080   -7.8910    1.2040 C.3    75  LYS75       0.1596
     53  C         -0.0360   -7.0230    2.1000 C.2    75  LYS75       0.2287
     54  O         -0.5290   -6.0820    2.7240 O.2    75  LYS75      -0.2864
     55  CB        -1.5570   -9.0140    2.0200 C.3    75  LYS75       0.0298
     56  CG        -2.6400   -9.7720    1.2670 C.3    75  LYS75       0.0038
     57  CD        -3.9740   -9.0290    1.3110 C.3    75  LYS75       0.0206
     58  CE        -4.9900   -9.6630    0.3870 C.3    75  LYS75       0.1093
     59  NZ        -5.3000  -11.0570    0.7940 N.3    75  LYS75      -0.1314
     60  N          7.2330   -8.8740   -7.3490 N.3   105  LYS105     -0.1245
     61  CA         7.3790  -10.3130   -7.6100 C.3   105  LYS105      0.1561
     62  C          8.4950  -10.5970   -8.6190 C.2   105  LYS105      0.2260
     63  O          9.1750  -11.6280   -8.5330 O.2   105  LYS105     -0.2867
     64  CB         6.0630  -10.9130   -8.1170 C.3   105  LYS105      0.0271
     65  CG         4.9070  -10.8880   -7.1200 C.3   105  LYS105      0.0035
     66  CD         5.2280  -11.6760   -5.8590 C.3   105  LYS105      0.0206
     67  CE         3.9730  -11.9820   -5.0650 C.3   105  LYS105      0.1093
     68  NZ         3.2880  -13.2150   -5.5530 N.3   105  LYS105     -0.1314
     69  N          3.2820   -8.5340    7.8070 N.3   130  ASP130     -0.1225
     70  CA         2.4160   -9.2930    6.9100 C.3   130  ASP130      0.1805
     71  C          1.0270   -9.4210    7.5250 C.2   130  ASP130      0.2598
     72  O          0.8040   -8.9840    8.6600 O.2   130  ASP130     -0.2718
     73  CB         3.0250  -10.6650    6.5850 C.3   130  ASP130      0.1424
     74  CG         2.6540  -11.1680    5.1820 C.2   130  ASP130      0.3668
     75  OD1        1.8700  -10.4990    4.4700 O.co2 130  ASP130     -0.2456
     76  OD2        3.1520  -12.2470    4.7940 O.co2 130  ASP130     -0.2456
     77  N          0.0970  -10.0020    6.7750 N.am  131  ASP131     -0.1960
     78  CA        -1.2870  -10.0980    7.2400 C.3   131  ASP131      0.1840
     79  C         -1.5430  -11.2740    8.1770 C.2   131  ASP131      0.2622
     80  O         -2.0700  -11.0920    9.2770 O.2   131  ASP131     -0.2715
     81  CB        -2.2800  -10.0880    6.0660 C.3   131  ASP131      0.1450
     82  CG        -1.9700  -11.1300    5.0020 C.2   131  ASP131      0.3671
     83  OD1       -0.8760  -11.7380    5.0120 O.co2 131  ASP131     -0.2456
     84  OD2       -2.8430  -11.3370    4.1420 O.co2 131  ASP131     -0.2456
     85  N         -1.1740  -12.4720    7.7380 N.am  132  VAL132     -0.1963
     86  CA        -1.4610  -13.7000    8.4690 C.3   132  VAL132      0.1727
     87  C         -0.2550  -14.6340    8.3760 C.2   132  VAL132      0.2616
     88  O          0.5210  -14.5550    7.4240 O.2   132  VAL132     -0.2715
     89  CB        -2.7180  -14.4170    7.8860 C.3   132  VAL132      0.0290
     90  CG1       -3.0980  -15.6170    8.7190 C.3   132  VAL132      0.0023
     91  CG2       -3.9120  -13.4640    7.7940 C.3   132  VAL132      0.0023
     92  N         -0.0920  -15.5090    9.3660 N.am  133  MET133     -0.1963
     93  CA         0.8330  -16.6230    9.2120 C.3   133  MET133      0.1736
     94  C          0.1220  -17.9620    9.3430 C.2   133  MET133      0.2617
     95  O         -0.6210  -18.2020   10.3010 O.2   133  MET133     -0.2715
     96  CB         2.0090  -16.5410   10.1780 C.3   133  MET133      0.0427
     97  CG         3.1830  -17.4170    9.7410 C.3   133  MET133      0.0599
     98  SD         4.4900  -17.5770   10.9650 S.3   133  MET133     -0.1393
     99  CE         5.1530  -15.9200   11.0080 C.3   133  MET133      0.0692
    100  N          0.3610  -18.8230    8.3630 N.am  134  THR134     -0.1937
    101  CA        -0.2170  -20.1570    8.3330 C.3   134  THR134      0.2028
    102  C          0.8970  -21.1870    8.5380 C.2   134  THR134      0.2642
    103  O          1.0780  -21.6840    9.6490 O.2   134  THR134     -0.2714
    104  CB        -1.0020  -20.3800    7.0260 C.3   134  THR134      0.1808
    105  OG1       -2.0180  -19.3740    6.9170 O.3   134  THR134     -0.2208
    106  CG2       -1.6540  -21.7650    6.9930 C.3   134  THR134      0.0379
    107  N          1.6530  -21.4820    7.4830 N.am  135  ALA135     -0.1963
    108  CA         2.7590  -22.4310    7.5790 C.3   135  ALA135      0.1728
    109  C          4.1020  -21.7220    7.7450 C.2   135  ALA135      0.2617
    110  O          5.0990  -22.3540    8.0930 O.2   135  ALA135     -0.2715
    111  CB         2.7790  -23.3670    6.3660 C.3   135  ALA135      0.0334
    112  N          4.1150  -20.4120    7.4940 N.am  136  GLY136     -0.1940
    113  CA         5.3080  -19.5840    7.6930 C.3   136  GLY136      0.2014
    114  C          6.1770  -19.3820    6.4640 C.2   136  GLY136      0.2640
    115  O          7.2420  -18.7650    6.5500 O.2   136  GLY136     -0.2714
    116  N          5.7210  -19.8910    5.3210 N.am  137  THR137     -0.1936
    117  CA         6.4910  -19.8300    4.0800 C.3   137  THR137      0.2028
    118  C          6.7420  -18.3920    3.6140 C.2   137  THR137      0.2642
    119  O          7.8640  -18.0510    3.2170 O.2   137  THR137     -0.2714
    120  CB         5.8250  -20.6640    2.9640 C.3   137  THR137      0.1808
    121  OG1        5.6660  -22.0160    3.4140 O.3   137  THR137     -0.2208
    122  CG2        6.6700  -20.6600    1.6900 C.3   137  THR137      0.0379
    123  N          5.7100  -17.5520    3.6740 N.am  138  ALA138     -0.1963
    124  CA         5.8470  -16.1500    3.2670 C.3   138  ALA138      0.1728
    125  C          6.9290  -15.4080    4.0620 C.2   138  ALA138      0.2616
    126  O          7.7520  -14.7000    3.4800 O.2   138  ALA138     -0.2715
    127  CB         4.5030  -15.4210    3.3530 C.3   138  ALA138      0.0334
    128  N          6.9420  -15.5940    5.3810 N.am  139  ILE139     -0.1977
    129  CA         7.9160  -14.9190    6.2430 C.3   139  ILE139      0.1596
    130  C          9.3310  -15.4490    6.0000 C.2   139  ILE139      0.2287
    131  O         10.2930  -14.6790    6.0050 O.2   139  ILE139     -0.2864
    132  CB         7.5210  -14.9790    7.7510 C.3   139  ILE139      0.0276
    133  CG1        6.1730  -14.2770    7.9840 C.3   139  ILE139      0.0022
    134  CG2        8.6190  -14.3800    8.6540 C.3   139  ILE139      0.0022
    135  CD1        6.1280  -12.7720    7.6280 C.3   139  ILE139      0.0001
@<TRIPOS>BOND
     1    62    63    2
     2    62    61    1
     3    50    49    1
     4    64    61    1
     5    64    65    1
     6    61    60    1
     7    49    47   ar
     8    49    48   ar
     9    65    66    1
    10    47    45   ar
    11    48    46   ar
    12    66    67    1
    13    68    67    1
    14    45    44   ar
    15    46    44   ar
    16    44    43    1
    17    38    35    1
    18    43    40    1
    19    40    39    1
    20    40    41    1
    21    35    36    1
    22    35    34    1
    23    39    36   am
    24    36    37    2
    25    34    29   am
    26     4     3    2
    27    41    42    2
    28    41    51   am
    29     6     7    1
    30     6     5    1
    31     7     8    1
    32     2     3    1
    33     2     5    1
    34     2     1    1
    35     3    10   am
    36    51    52    1
    37    29    30    2
    38    29    28    1
    39    58    59    1
    40    58    57    1
    41     8     9    1
    42    12    13    2
    43    12    11    1
    44    28    31    1
    45    28    27    1
    46    52    55    1
    47    52    53    1
    48    10    11    1
    49    56    57    1
    50    56    55    1
    51    11    14    1
    52    31    32    1
    53   122   120    1
    54    26    25   ar
    55    26    24   ar
    56    25    23   ar
    57    53    54    2
    58    24    22   ar
    59    27    33    1
    60    23    21   ar
    61    22    21   ar
    62   120   121    1
    63   120   117    1
    64    32    33    1
    65    14    15    1
    66   119   118    2
    67    21    20    1
    68   124   127    1
    69   124   123    1
    70   124   125    1
    71   126   125    2
    72   118   123   am
    73   118   117    1
    74   125   128   am
    75   117   116    1
    76    20    17    1
    77    84    82   ar
    78    75    74   ar
    79    76    74   ar
    80    82    83   ar
    81    82    81    1
    82    74    73    1
    83   116   114   am
    84   128   129    1
    85    17    18    1
    86    17    16    1
    87   130   131    2
    88   130   129    1
    89    81    78    1
    90    19    18    2
    91   129   132    1
    92   111   108    1
    93   114   115    2
    94   114   113    1
    95    73    70    1
    96    77    78    1
    97    77    71   am
    98    70    71    1
    99    70    69    1
   100   105   104    1
   101   106   104    1
   102   104   101    1
   103    78    79    1
   104    88    87    2
   105   107   108    1
   106   107   102   am
   107   112   113    1
   108   112   109   am
   109    71    72    2
   110   108   109    1
   111   135   133    1
   112    85    79   am
   113    85    86    1
   114   109   110    2
   115   132   133    1
   116   132   134    1
   117    91    89    1
   118    89    86    1
   119    89    90    1
   120    79    80    2
   121   101   100    1
   122   101   102    1
   123   100    94   am
   124    87    86    1
   125    87    92   am
   126   102   103    2
   127    93    94    1
   128    93    92    1
   129    93    96    1
   130    94    95    2
   131    97    96    1
   132    97    98    1
   133    98    99    1
