@<TRIPOS>MOLECULE
tmp/2ps1B00.pdb
 87 83 0 0 0
SMALL
GASTEIGER

@<TRIPOS>ATOM
      1  N         -5.5760  -22.5940    0.7690 N.3    27  LEU27      -0.1231
      2  CA        -4.5810  -21.6470    1.2600 C.3    27  LEU27       0.1693
      3  C         -3.3290  -21.6980    0.3880 C.2    27  LEU27       0.2592
      4  O         -3.1880  -22.5920   -0.4490 O.2    27  LEU27      -0.2718
      5  CB        -4.2450  -21.9280    2.7270 C.3    27  LEU27       0.0284
      6  CG        -5.4290  -21.9920    3.7040 C.3    27  LEU27       0.0019
      7  CD1       -4.9270  -22.1380    5.1280 C.3    27  LEU27       0.0001
      8  CD2       -6.3440  -20.7730    3.5820 C.3    27  LEU27       0.0001
      9  N         -2.4260  -20.7380    0.5760 N.am   28  LYS28      -0.1966
     10  CA        -1.1760  -20.7150   -0.1870 C.3    28  LYS28       0.1728
     11  C         -0.3950  -22.0180    0.0020 C.2    28  LYS28       0.2616
     12  O          0.2080  -22.5340   -0.9440 O.2    28  LYS28      -0.2715
     13  CB        -0.3160  -19.5020    0.1870 C.3    28  LYS28       0.0311
     14  CG         0.8910  -19.3210   -0.7360 C.3    28  LYS28       0.0038
     15  CD         1.5800  -17.9660   -0.5750 C.3    28  LYS28       0.0206
     16  CE         2.1700  -17.7610    0.8100 C.3    28  LYS28       0.1093
     17  NZ         3.2400  -18.7260    1.1860 N.3    28  LYS28      -0.1314
     18  N         -0.4380  -22.5460    1.2240 N.am   29  SER29      -0.1950
     19  CA         0.2080  -23.8110    1.5780 C.3    29  SER29       0.1924
     20  C         -0.4400  -25.0290    0.9200 C.2    29  SER29       0.2314
     21  O          0.0990  -26.1310    0.9960 O.2    29  SER29      -0.2863
     22  CB         0.2090  -23.9970    3.1000 C.3    29  SER29       0.2116
     23  OG        -1.1140  -23.9720    3.6170 O.3    29  SER29      -0.2180
     24  N        -11.1200  -18.1420    6.2780 N.3    36  PHE36      -0.1227
     25  CA       -10.1160  -17.3400    5.5940 C.3    36  PHE36       0.1736
     26  C        -10.2080  -15.9140    6.1100 C.2    36  PHE36       0.2595
     27  O        -11.2750  -15.3010    6.0740 O.2    36  PHE36      -0.2718
     28  CB       -10.3660  -17.3720    4.0810 C.3    36  PHE36       0.0547
     29  CG        -9.2300  -16.8380    3.2560 C.ar   36  PHE36      -0.0202
     30  CD1       -8.1570  -17.6580    2.9090 C.ar   36  PHE36      -0.0042
     31  CD2       -9.2410  -15.5210    2.8050 C.ar   36  PHE36      -0.0042
     32  CE1       -7.1020  -17.1680    2.1320 C.ar   36  PHE36      -0.0003
     33  CE2       -8.1940  -15.0220    2.0320 C.ar   36  PHE36      -0.0003
     34  CZ        -7.1240  -15.8460    1.6950 C.ar   36  PHE36      -0.0000
     35  N         -9.0870  -15.3980    6.6050 N.am   37  PHE37      -0.1976
     36  CA        -9.0190  -14.0220    7.0850 C.3    37  PHE37       0.1639
     37  C         -8.4270  -13.1420    5.9940 C.2    37  PHE37       0.2290
     38  O         -7.2570  -13.2820    5.6330 O.2    37  PHE37      -0.2864
     39  CB        -8.1910  -13.9480    8.3690 C.3    37  PHE37       0.0560
     40  CG        -8.3800  -12.6740    9.1490 C.ar   37  PHE37      -0.0200
     41  CD1       -7.4090  -11.6830    9.1250 C.ar   37  PHE37      -0.0042
     42  CD2       -9.5230  -12.4770    9.9260 C.ar   37  PHE37      -0.0042
     43  CE1       -7.5730  -10.5050    9.8530 C.ar   37  PHE37      -0.0003
     44  CE2       -9.6960  -11.3040   10.6530 C.ar   37  PHE37      -0.0003
     45  CZ        -8.7170  -10.3160   10.6150 C.ar   37  PHE37      -0.0000
     46  N         -0.1970   -8.4340    0.0400 N.3    75  LYS75      -0.1245
     47  CA        -0.9080   -7.8910    1.2040 C.3    75  LYS75       0.1561
     48  C         -0.0360   -7.0230    2.1000 C.2    75  LYS75       0.2260
     49  O         -0.5290   -6.0820    2.7240 O.2    75  LYS75      -0.2867
     50  CB        -1.5570   -9.0140    2.0200 C.3    75  LYS75       0.0271
     51  CG        -2.6400   -9.7720    1.2670 C.3    75  LYS75       0.0035
     52  CD        -3.9740   -9.0290    1.3110 C.3    75  LYS75       0.0206
     53  CE        -4.9900   -9.6630    0.3870 C.3    75  LYS75       0.1093
     54  NZ        -5.3000  -11.0570    0.7940 N.3    75  LYS75      -0.1314
     55  N          0.0970  -10.0020    6.7750 N.3   131  ASP131     -0.1225
     56  CA        -1.2870  -10.0980    7.2400 C.3   131  ASP131      0.1805
     57  C         -1.5430  -11.2740    8.1770 C.2   131  ASP131      0.2597
     58  O         -2.0700  -11.0920    9.2770 O.2   131  ASP131     -0.2718
     59  CB        -2.2800  -10.0880    6.0660 C.3   131  ASP131      0.1424
     60  CG        -1.9700  -11.1300    5.0020 C.2   131  ASP131      0.3668
     61  OD1       -0.8760  -11.7380    5.0120 O.co2 131  ASP131     -0.2456
     62  OD2       -2.8430  -11.3370    4.1420 O.co2 131  ASP131     -0.2456
     63  N         -1.1740  -12.4720    7.7380 N.am  132  VAL132     -0.1980
     64  CA        -1.4610  -13.7000    8.4690 C.3   132  VAL132      0.1595
     65  C         -0.2550  -14.6340    8.3760 C.2   132  VAL132      0.2287
     66  O          0.5210  -14.5550    7.4240 O.2   132  VAL132     -0.2864
     67  CB        -2.7180  -14.4170    7.8860 C.3   132  VAL132      0.0276
     68  CG1       -3.0980  -15.6170    8.7190 C.3   132  VAL132      0.0022
     69  CG2       -3.9120  -13.4640    7.7940 C.3   132  VAL132      0.0022
     70  N          0.3610  -18.8230    8.3630 N.3   134  THR134     -0.1218
     71  CA        -0.2170  -20.1570    8.3330 C.3   134  THR134      0.1862
     72  C          0.8970  -21.1870    8.5380 C.2   134  THR134      0.2287
     73  O          1.0780  -21.6840    9.6490 O.2   134  THR134     -0.2866
     74  CB        -1.0020  -20.3800    7.0260 C.3   134  THR134      0.1770
     75  OG1       -2.0180  -19.3740    6.9170 O.3   134  THR134     -0.2211
     76  CG2       -1.6540  -21.7650    6.9930 C.3   134  THR134      0.0375
     77  N         -2.6530  -17.8020   12.8950 N.3   162  ARG162     -0.1245
     78  CA        -3.6310  -18.8780   12.7010 C.3   162  ARG162      0.1563
     79  C         -3.3700  -20.0980   13.5970 C.2   162  ARG162      0.2260
     80  O         -4.1790  -21.0320   13.6360 O.2   162  ARG162     -0.2867
     81  CB        -3.7260  -19.2700   11.2190 C.3   162  ARG162      0.0307
     82  CG        -4.6090  -18.3220   10.3920 C.3   162  ARG162      0.0489
     83  CD        -4.6590  -18.7060    8.9100 C.3   162  ARG162      0.2205
     84  NE        -5.1650  -20.0630    8.7170 N.pl3 162  ARG162     -0.0865
     85  CZ        -6.3260  -20.3760    8.1470 C.cat 162  ARG162      0.5346
     86  NH1       -7.1310  -19.4320    7.6660 N.pl3 162  ARG162      0.1354
     87  NH2       -6.6750  -21.6520    8.0410 N.pl3 162  ARG162      0.1354
@<TRIPOS>BOND
     1    12    11    2
     2    14    15    1
     3    14    13    1
     4    15    16    1
     5     4     3    2
     6    10    11    1
     7    10    13    1
     8    10     9    1
     9    11    18   am
    10    46    47    1
    11    53    54    1
    12    53    52    1
    13     3     9   am
    14     3     2    1
    15     1     2    1
    16    16    17    1
    17    20    21    2
    18    20    19    1
    19    47    50    1
    20    47    48    1
    21    18    19    1
    22     2     5    1
    23    51    52    1
    24    51    50    1
    25    19    22    1
    26    34    33   ar
    27    34    32   ar
    28    33    31   ar
    29    48    49    2
    30    32    30   ar
    31     5     6    1
    32    31    29   ar
    33    30    29   ar
    34    22    23    1
    35    29    28    1
    36     8     6    1
    37     6     7    1
    38    28    25    1
    39    62    60   ar
    40    60    61   ar
    41    60    59    1
    42    25    26    1
    43    25    24    1
    44    38    37    2
    45    37    36    1
    46    59    56    1
    47    27    26    2
    48    26    35   am
    49    35    36    1
    50    55    56    1
    51    75    74    1
    52    76    74    1
    53    74    71    1
    54    36    39    1
    55    56    57    1
    56    66    65    2
    57    86    85    1
    58    63    57   am
    59    63    64    1
    60    69    67    1
    61    67    64    1
    62    67    68    1
    63    87    85    1
    64    85    84    2
    65    57    58    2
    66    71    70    1
    67    71    72    1
    68    39    40    1
    69    65    64    1
    70    72    73    2
    71    84    83    1
    72    83    82    1
    73    41    40   ar
    74    41    43   ar
    75    40    42   ar
    76    43    45   ar
    77    42    44   ar
    78    82    81    1
    79    45    44   ar
    80    81    78    1
    81    78    77    1
    82    78    79    1
    83    79    80    2
