@<TRIPOS>MOLECULE
tmp/2psjB00.pdb
 148 144 0 0 0
SMALL
GASTEIGER

@<TRIPOS>ATOM
      1  N          0.9630  -36.1120    2.6190 N.3   142  GLU142     -0.1245
      2  CA         0.2090  -37.3240    2.9100 C.3   142  GLU142      0.1567
      3  C         -0.0160  -37.4540    4.4120 C.2   142  GLU142      0.2260
      4  O          0.2530  -38.4870    5.0130 O.2   142  GLU142     -0.2867
      5  CB         0.9610  -38.5330    2.3350 C.3   142  GLU142      0.0388
      6  CG         0.8930  -38.5900    0.8100 C.3   142  GLU142      0.1160
      7  CD        -0.4900  -38.9840    0.3070 C.2   142  GLU142      0.3649
      8  OE1       -1.0820  -39.9290    0.8640 O.co2 142  GLU142     -0.2457
      9  OE2       -1.0080  -38.3380   -0.6320 O.co2 142  GLU142     -0.2457
     10  N        -13.1090  -42.9860   -0.0300 N.3   152  TRP152     -0.1241
     11  CA       -12.9820  -44.2180    0.7330 C.3   152  TRP152      0.1605
     12  C        -14.3130  -44.4240    1.4620 C.2   152  TRP152      0.2264
     13  O        -14.3820  -44.2910    2.6880 O.2   152  TRP152     -0.2867
     14  CB       -11.8130  -44.0820    1.7190 C.3   152  TRP152      0.0550
     15  CG       -11.3460  -45.3680    2.3540 C.ar  152  TRP152      0.0003
     16  CD1      -11.9420  -46.5940    2.2710 C.ar  152  TRP152      0.0946
     17  CD2      -10.2020  -45.5370    3.2040 C.ar  152  TRP152      0.0152
     18  NE1      -11.2340  -47.5150    2.9980 N.ar  152  TRP152     -0.2442
     19  CE2      -10.1610  -46.8940    3.5820 C.ar  152  TRP152      0.0810
     20  CE3       -9.2010  -44.6740    3.6720 C.ar  152  TRP152      0.0012
     21  CZ2       -9.1630  -47.4120    4.4080 C.ar  152  TRP152      0.0191
     22  CZ3       -8.2090  -45.1880    4.4930 C.ar  152  TRP152      0.0001
     23  CH2       -8.1990  -46.5470    4.8540 C.ar  152  TRP152      0.0015
     24  N        -13.8400  -50.8390    7.0940 N.3   158  ASP158     -0.1225
     25  CA       -12.4400  -51.2620    7.0060 C.3   158  ASP158      0.1805
     26  C        -11.7260  -51.0890    8.3320 C.2   158  ASP158      0.2597
     27  O        -10.9230  -51.9280    8.7200 O.2   158  ASP158     -0.2718
     28  CB       -11.6880  -50.4620    5.9350 C.3   158  ASP158      0.1424
     29  CG       -12.0040  -50.9180    4.5310 C.2   158  ASP158      0.3668
     30  OD1      -12.6920  -51.9410    4.3580 O.co2 158  ASP158     -0.2456
     31  OD2      -11.5450  -50.2500    3.5890 O.co2 158  ASP158     -0.2456
     32  N        -12.0160  -49.9900    9.0150 N.am  159  ILE159     -0.1980
     33  CA       -11.4130  -49.7130   10.3110 C.3   159  ILE159      0.1595
     34  C        -12.0730  -50.5840   11.3850 C.2   159  ILE159      0.2287
     35  O        -11.4080  -51.0160   12.3200 O.2   159  ILE159     -0.2864
     36  CB       -11.4730  -48.2050   10.6540 C.3   159  ILE159      0.0276
     37  CG1      -10.7060  -47.3840    9.6020 C.3   159  ILE159      0.0022
     38  CG2      -10.9000  -47.9400   12.0390 C.3   159  ILE159      0.0022
     39  CD1       -9.2020  -47.7020    9.4950 C.3   159  ILE159      0.0001
     40  N        -12.9430  -53.6530   10.7400 N.3   161  LEU161     -0.1231
     41  CA       -12.1960  -54.8850   10.4950 C.3   161  LEU161      0.1693
     42  C        -10.8320  -54.8600   11.1730 C.2   161  LEU161      0.2591
     43  O        -10.4890  -55.7700   11.9090 O.2   161  LEU161     -0.2718
     44  CB       -12.0080  -55.1070    8.9910 C.3   161  LEU161      0.0284
     45  CG       -11.2640  -56.3750    8.5440 C.3   161  LEU161      0.0019
     46  CD1      -12.0560  -57.6270    8.8840 C.3   161  LEU161      0.0001
     47  CD2      -10.9810  -56.3160    7.0460 C.3   161  LEU161      0.0001
     48  N        -10.0570  -53.8110   10.9260 N.am  162  ILE162     -0.1980
     49  CA        -8.6830  -53.7380   11.4490 C.3   162  ILE162      0.1595
     50  C         -8.6570  -53.6710   12.9860 C.2   162  ILE162      0.2287
     51  O         -7.7020  -54.1170   13.6070 O.2   162  ILE162     -0.2864
     52  CB        -7.9000  -52.5610   10.8190 C.3   162  ILE162      0.0276
     53  CG1       -6.4170  -52.9160   10.6750 C.3   162  ILE162      0.0022
     54  CG2       -8.0790  -51.2750   11.6220 C.3   162  ILE162      0.0022
     55  CD1       -6.1340  -53.9340    9.5820 C.3   162  ILE162      0.0001
     56  N         -4.3230  -60.1390   10.1700 N.3   170  MET170     -0.1245
     57  CA        -3.8900  -59.4430    8.9530 C.3   170  MET170      0.1570
     58  C         -2.4690  -58.9010    9.0760 C.2   170  MET170      0.2261
     59  O         -1.6800  -58.9730    8.1310 O.2   170  MET170     -0.2867
     60  CB        -4.8250  -58.2730    8.6360 C.3   170  MET170      0.0387
     61  CG        -6.1860  -58.6800    8.1120 C.3   170  MET170      0.0595
     62  SD        -7.3120  -57.2610    8.1250 S.3   170  MET170     -0.1393
     63  CE        -6.5030  -56.1900    6.9500 C.3   170  MET170      0.0692
     64  N          0.2250  -57.2700    6.5960 N.3   176  PHE176     -0.1227
     65  CA        -0.5390  -56.5900    5.5470 C.3   176  PHE176      0.1736
     66  C          0.0460  -55.2300    5.1140 C.2   176  PHE176      0.2595
     67  O          0.1540  -54.9600    3.9150 O.2   176  PHE176     -0.2718
     68  CB        -1.9780  -56.4090    6.0260 C.3   176  PHE176      0.0547
     69  CG        -2.8840  -55.7250    5.0380 C.ar  176  PHE176     -0.0202
     70  CD1       -3.1730  -56.3170    3.8170 C.ar  176  PHE176     -0.0042
     71  CD2       -3.4900  -54.5120    5.3540 C.ar  176  PHE176     -0.0042
     72  CE1       -4.0310  -55.6980    2.9080 C.ar  176  PHE176     -0.0003
     73  CE2       -4.3510  -53.8900    4.4480 C.ar  176  PHE176     -0.0003
     74  CZ        -4.6180  -54.4850    3.2340 C.ar  176  PHE176     -0.0000
     75  N          0.4040  -54.3650    6.0600 N.am  177  PHE177     -0.1976
     76  CA         0.7760  -52.9920    5.6840 C.3   177  PHE177      0.1639
     77  C          2.1650  -52.9260    5.0590 C.2   177  PHE177      0.2290
     78  O          2.3880  -52.1800    4.1120 O.2   177  PHE177     -0.2864
     79  CB         0.5930  -52.0100    6.8530 C.3   177  PHE177      0.0560
     80  CG        -0.8550  -51.8420    7.2530 C.ar  177  PHE177     -0.0200
     81  CD1       -1.7310  -51.1330    6.4460 C.ar  177  PHE177     -0.0042
     82  CD2       -1.3530  -52.4450    8.3980 C.ar  177  PHE177     -0.0042
     83  CE1       -3.0800  -51.0200    6.7860 C.ar  177  PHE177     -0.0003
     84  CE2       -2.6850  -52.3380    8.7420 C.ar  177  PHE177     -0.0003
     85  CZ        -3.5580  -51.6220    7.9390 C.ar  177  PHE177     -0.0000
     86  N          0.4820  -53.3730    1.4190 N.3   181  VAL181     -0.1245
     87  CA         0.1090  -51.9790    1.1750 C.3   181  VAL181      0.1561
     88  C          1.3070  -51.1420    0.7140 C.2   181  VAL181      0.2260
     89  O          1.2310  -50.4510   -0.3090 O.2   181  VAL181     -0.2867
     90  CB        -0.5650  -51.3470    2.4150 C.3   181  VAL181      0.0252
     91  CG1       -0.9320  -49.8770    2.1560 C.3   181  VAL181      0.0019
     92  CG2       -1.7950  -52.1630    2.8180 C.3   181  VAL181      0.0019
     93  N          1.7530  -48.7320   -2.8880 N.3   185  LYS185     -0.1245
     94  CA         1.6510  -47.2730   -2.8550 C.3   185  LYS185      0.1561
     95  C          2.9720  -46.5720   -3.2180 C.2   185  LYS185      0.2260
     96  O          3.1840  -45.4080   -2.8710 O.2   185  LYS185     -0.2867
     97  CB         1.1430  -46.8200   -1.4850 C.3   185  LYS185      0.0271
     98  CG        -0.2220  -47.4170   -1.1050 C.3   185  LYS185      0.0035
     99  CD        -1.3470  -46.8750   -1.9740 C.3   185  LYS185      0.0206
    100  CE        -2.5820  -47.7740   -1.9600 C.3   185  LYS185      0.1093
    101  NZ        -2.5730  -48.8700   -2.9900 N.3   185  LYS185     -0.1314
    102  N         -2.8770  -47.7060   12.2740 N.3   216  PRO216     -0.2116
    103  CA        -4.2400  -47.6060   11.7220 C.3   216  PRO216      0.1372
    104  C         -5.3500  -47.6030   12.7720 C.2   216  PRO216      0.2244
    105  O         -6.3940  -46.9690   12.5800 O.2   216  PRO216     -0.2868
    106  CB        -4.3570  -48.8340   10.7930 C.3   216  PRO216      0.0268
    107  CG        -3.1460  -49.6530   11.0130 C.3   216  PRO216      0.0207
    108  CD        -2.1070  -48.8100   11.6730 C.3   216  PRO216      0.0892
    109  N         -3.2160  -40.9890   -3.5460 N.3   257  PHE257     -0.1227
    110  CA        -4.1620  -42.0910   -3.4140 C.3   257  PHE257      0.1736
    111  C         -5.2170  -41.7960   -2.3590 C.2   257  PHE257      0.2595
    112  O         -4.9270  -41.8000   -1.1680 O.2   257  PHE257     -0.2718
    113  CB        -3.4470  -43.3990   -3.0810 C.3   257  PHE257      0.0547
    114  CG        -4.3570  -44.5800   -3.1160 C.ar  257  PHE257     -0.0202
    115  CD1       -4.9630  -45.0430   -1.9600 C.ar  257  PHE257     -0.0042
    116  CD2       -4.6520  -45.2010   -4.3160 C.ar  257  PHE257     -0.0042
    117  CE1       -5.8310  -46.1290   -2.0050 C.ar  257  PHE257     -0.0003
    118  CE2       -5.5220  -46.2850   -4.3580 C.ar  257  PHE257     -0.0003
    119  CZ        -6.1050  -46.7410   -3.2010 C.ar  257  PHE257     -0.0000
    120  N         -6.4500  -41.5780   -2.8100 N.am  258  PHE258     -0.1976
    121  CA        -7.5240  -41.0870   -1.9450 C.3   258  PHE258      0.1639
    122  C         -7.0440  -39.8670   -1.1440 C.2   258  PHE258      0.2290
    123  O         -7.3760  -39.7240    0.0350 O.2   258  PHE258     -0.2864
    124  CB        -8.0260  -42.1700   -0.9690 C.3   258  PHE258      0.0560
    125  CG        -8.6100  -43.4070   -1.6260 C.ar  258  PHE258     -0.0200
    126  CD1       -8.9160  -43.4590   -2.9810 C.ar  258  PHE258     -0.0042
    127  CD2       -8.8840  -44.5240   -0.8450 C.ar  258  PHE258     -0.0042
    128  CE1       -9.4620  -44.6160   -3.5500 C.ar  258  PHE258     -0.0003
    129  CE2       -9.4380  -45.6780   -1.4060 C.ar  258  PHE258     -0.0003
    130  CZ        -9.7200  -45.7210   -2.7570 C.ar  258  PHE258     -0.0000
    131  N         -6.9320  -34.8100    2.2470 N.3   262  ILE262     -0.1245
    132  CA        -5.6890  -34.3200    2.8210 C.3   262  ILE262      0.1561
    133  C         -5.3720  -32.9530    2.2100 C.2   262  ILE262      0.2260
    134  O         -5.1040  -31.9970    2.9250 O.2   262  ILE262     -0.2867
    135  CB        -4.5100  -35.2980    2.5540 C.3   262  ILE262      0.0252
    136  CG1       -4.8450  -36.6940    3.0840 C.3   262  ILE262      0.0019
    137  CG2       -3.2210  -34.7930    3.1890 C.3   262  ILE262      0.0019
    138  CD1       -3.7690  -37.7480    2.8000 C.3   262  ILE262      0.0001
    139  N          1.3960  -42.7470   -2.2470 N.3   281  HIS281     -0.1241
    140  CA         1.5090  -42.3760   -0.8340 C.3   281  HIS281      0.1621
    141  C          2.9670  -42.1610   -0.4350 C.2   281  HIS281      0.2264
    142  O          3.3030  -41.1780    0.2040 O.2   281  HIS281     -0.2867
    143  CB         0.8680  -43.4390    0.0580 C.3   281  HIS281      0.0745
    144  CG         0.9240  -43.1090    1.5170 C.ar  281  HIS281      0.0817
    145  ND1        0.1330  -42.1380    2.0910 N.ar  281  HIS281     -0.2268
    146  CD2        1.6870  -43.6130    2.5160 C.ar  281  HIS281      0.1154
    147  CE1        0.4050  -42.0640    3.3830 C.ar  281  HIS281      0.1986
    148  NE2        1.3350  -42.9560    3.6680 N.ar  281  HIS281     -0.2212
@<TRIPOS>BOND
     1   118   116   ar
     2   118   119   ar
     3   116   114   ar
     4   128   126   ar
     5   128   130   ar
     6   109   110    1
     7   110   113    1
     8   110   111    1
     9    95    96    2
    10    95    94    1
    11   119   117   ar
    12   114   113    1
    13   114   115   ar
    14   101   100    1
    15   126   125   ar
    16    93    94    1
    17    94    97    1
    18   120   111   am
    19   120   121    1
    20   130   129   ar
    21   111   112    2
    22   139   140    1
    23   117   115   ar
    24    99   100    1
    25    99    98    1
    26   121   122    1
    27   121   124    1
    28   125   124    1
    29   125   127   ar
    30    97    98    1
    31   129   127   ar
    32   122   123    2
    33   140   141    1
    34   140   143    1
    35     9     7   ar
    36   141   142    2
    37    89    88    2
    38    10    11    1
    39   143   144    1
    40     7     6    1
    41     7     8   ar
    42    88    87    1
    43    11    12    1
    44    11    14    1
    45     6     5    1
    46    87    86    1
    47    87    90    1
    48    12    13    2
    49   144   145   ar
    50   144   146   ar
    51    14    15    1
    52   145   147   ar
    53    91    90    1
    54   133   132    1
    55   133   134    2
    56   131   132    1
    57    16    15   ar
    58    16    18   ar
    59     5     2    1
    60    15    17   ar
    61    90    92    1
    62   146   148   ar
    63   135   132    1
    64   135   136    1
    65   135   137    1
    66     1     2    1
    67   138   136    1
    68    72    74   ar
    69    72    70   ar
    70     2     3    1
    71    18    19   ar
    72    17    19   ar
    73    17    20   ar
    74    74    73   ar
    75   147   148   ar
    76    19    21   ar
    77    31    29   ar
    78    20    22   ar
    79    70    69   ar
    80    67    66    2
    81    78    77    2
    82    30    29   ar
    83    21    23   ar
    84     3     4    2
    85    73    71   ar
    86    22    23   ar
    87    29    28    1
    88    69    71   ar
    89    69    68    1
    90    77    76    1
    91    66    65    1
    92    66    75   am
    93    65    68    1
    94    65    64    1
    95    76    75    1
    96    76    79    1
    97    28    25    1
    98    81    83   ar
    99    81    80   ar
   100    83    85   ar
   101    79    80    1
   102    63    62    1
   103    25    24    1
   104    25    26    1
   105    47    45    1
   106    80    82   ar
   107    85    84   ar
   108    61    62    1
   109    61    60    1
   110    59    58    2
   111    26    27    2
   112    26    32   am
   113    82    84   ar
   114    45    46    1
   115    45    44    1
   116    60    57    1
   117    57    58    1
   118    57    56    1
   119    44    41    1
   120    32    33    1
   121    39    37    1
   122    55    53    1
   123    37    36    1
   124    33    36    1
   125    33    34    1
   126    41    40    1
   127    41    42    1
   128    36    38    1
   129    53    52    1
   130   106   107    1
   131   106   103    1
   132    52    49    1
   133    52    54    1
   134    48    42   am
   135    48    49    1
   136   107   108    1
   137    42    43    2
   138    34    35    2
   139    49    50    1
   140   108   102    1
   141   103   102    1
   142   103   104    1
   143   105   104    2
   144    50    51    2
