@<TRIPOS>MOLECULE
tmp/2psuB00.pdb
 121 113 0 0 0
SMALL
GASTEIGER

@<TRIPOS>ATOM
      1  N         19.3120   16.8590   15.2350 N.3     8  ARG8       -0.1245
      2  CA        18.6070   18.0620   15.6470 C.3     8  ARG8        0.1563
      3  C         17.5850   17.7100   16.7360 C.2     8  ARG8        0.2260
      4  O         16.8590   16.7140   16.6040 O.2     8  ARG8       -0.2867
      5  CB        17.9040   18.6920   14.4520 C.3     8  ARG8        0.0307
      6  CG        18.8600   19.1570   13.3820 C.3     8  ARG8        0.0489
      7  CD        18.1450   19.9780   12.3340 C.3     8  ARG8        0.2205
      8  NE        19.0080   20.2240   11.1930 N.pl3   8  ARG8       -0.0865
      9  CZ        18.8680   21.2220   10.3210 C.cat   8  ARG8        0.5346
     10  NH1       17.8890   22.1290   10.4470 N.pl3   8  ARG8        0.1354
     11  NH2       19.7320   21.3120    9.3180 N.pl3   8  ARG8        0.1354
     12  N         12.4040   22.7940   16.9820 N.3    23  LEU23      -0.1245
     13  CA        13.7500   22.6670   17.4970 C.3    23  LEU23       0.1561
     14  C         13.7890   23.2390   18.9140 C.2    23  LEU23       0.2260
     15  O         13.3390   24.3600   19.1270 O.2    23  LEU23      -0.2867
     16  CB        14.6530   23.4960   16.5800 C.3    23  LEU23       0.0270
     17  CG        15.9960   23.0840   16.0370 C.3    23  LEU23       0.0019
     18  CD1       16.0450   21.6890   15.5450 C.3    23  LEU23       0.0001
     19  CD2       16.3330   24.1020   14.9180 C.3    23  LEU23       0.0001
     20  N         15.8490   25.1220   21.0580 N.3    25  ASP25      -0.1239
     21  CA        16.9750   25.9380   20.6230 C.3    25  ASP25       0.1674
     22  C         17.5070   26.9210   21.6810 C.2    25  ASP25       0.2266
     23  O         16.9820   28.0210   21.8590 O.2    25  ASP25      -0.2867
     24  CB        16.5740   26.7030   19.3540 C.3    25  ASP25       0.1410
     25  CG        17.7590   27.3250   18.6450 C.2    25  ASP25       0.3668
     26  OD1       17.5590   27.8980   17.5500 O.co2  25  ASP25      -0.2456
     27  OD2       18.8930   27.2180   19.1650 O.co2  25  ASP25      -0.2456
     28  N         20.1270   28.6140   21.4400 N.3    27  GLY27      -0.1210
     29  CA        20.6860   29.7670   20.7420 C.3    27  GLY27       0.1956
     30  C         19.6570   30.8160   20.3200 C.2    27  GLY27       0.2612
     31  O         20.0280   31.8440   19.7660 O.2    27  GLY27      -0.2717
     32  N         18.3780   30.5670   20.6020 N.am   28  ALA28      -0.1965
     33  CA        17.2930   31.4640   20.2270 C.3    28  ALA28       0.1728
     34  C         16.6970   32.1480   21.4510 C.2    28  ALA28       0.2616
     35  O         16.1780   31.4840   22.3520 O.2    28  ALA28      -0.2715
     36  CB        16.2240   30.6990   19.4990 C.3    28  ALA28       0.0334
     37  N         16.7590   33.4750   21.4850 N.am   29  ASP29      -0.1957
     38  CA        16.1390   34.2480   22.5750 C.3    29  ASP29       0.1840
     39  C         14.6320   34.0740   22.5460 C.2    29  ASP29       0.2622
     40  O         13.9760   34.0870   23.5900 O.2    29  ASP29      -0.2715
     41  CB        16.3940   35.7460   22.4120 C.3    29  ASP29       0.1450
     42  CG        17.8480   36.1150   22.5020 C.2    29  ASP29       0.3671
     43  OD1       18.6550   35.3490   23.0740 O.co2  29  ASP29      -0.2456
     44  OD2       18.1740   37.2060   22.0020 O.co2  29  ASP29      -0.2456
     45  N         14.1060   33.9360   21.3260 N.am   30  ASP30      -0.1971
     46  CA        12.6800   33.9760   21.0610 C.3    30  ASP30       0.1709
     47  C         12.2220   32.7010   20.3760 C.2    30  ASP30       0.2293
     48  O         13.0340   31.9690   19.7910 O.2    30  ASP30      -0.2864
     49  CB        12.3460   35.1410   20.1420 C.3    30  ASP30       0.1436
     50  CG        12.8850   36.4540   20.6470 C.2    30  ASP30       0.3671
     51  OD1       12.5660   36.8290   21.7940 O.co2  30  ASP30      -0.2456
     52  OD2       13.6310   37.1090   19.8860 O.co2  30  ASP30      -0.2456
     53  N         10.0820   31.1990   17.3560 N.3    32  VAL32      -0.1245
     54  CA         9.7850   31.6130   15.9890 C.3    32  VAL32       0.1561
     55  C          9.1440   30.4420   15.2600 C.2    32  VAL32       0.2260
     56  O          9.7660   29.3790   15.0620 O.2    32  VAL32      -0.2867
     57  CB        11.0400   32.0470   15.2170 C.3    32  VAL32       0.0252
     58  CG1       10.6470   32.8160   13.9350 C.3    32  VAL32       0.0019
     59  CG2       11.9660   32.8960   16.1040 C.3    32  VAL32       0.0019
     60  N          7.8260   42.8270   13.8090 N.3    45  LYS45      -0.1245
     61  CA         9.1450   42.7310   14.4090 C.3    45  LYS45       0.1561
     62  C         10.1080   42.1890   13.3450 C.2    45  LYS45       0.2260
     63  O          9.6950   41.5480   12.3880 O.2    45  LYS45      -0.2867
     64  CB         9.0930   41.8170   15.6420 C.3    45  LYS45       0.0271
     65  CG        10.3440   41.7910   16.5270 C.3    45  LYS45       0.0035
     66  CD        10.1520   40.7980   17.6730 C.3    45  LYS45       0.0206
     67  CE        11.4340   40.5030   18.4290 C.3    45  LYS45       0.1093
     68  NZ        11.7390   41.4990   19.4600 N.3    45  LYS45      -0.1314
     69  N         13.7490   40.0020   13.2070 N.3    47  ILE47      -0.1231
     70  CA        14.7620   39.2420   13.9400 C.3    47  ILE47       0.1692
     71  C         15.8770   38.8030   12.9840 C.2    47  ILE47       0.2593
     72  O         15.6390   38.5020   11.8070 O.2    47  ILE47      -0.2718
     73  CB        14.1690   38.0370   14.7020 C.3    47  ILE47       0.0266
     74  CG1       13.3200   37.1590   13.7900 C.3    47  ILE47       0.0019
     75  CG2       13.3400   38.5180   15.8820 C.3    47  ILE47       0.0020
     76  CD1       13.0380   35.7980   14.3750 C.3    47  ILE47       0.0001
     77  N         17.0970   38.8040   13.5070 N.am   48  GLY48      -0.1942
     78  CA        18.2800   38.5930   12.7030 C.3    48  GLY48       0.2014
     79  C         19.0430   37.3680   13.1350 C.2    48  GLY48       0.2639
     80  O         19.1150   37.0470   14.3270 O.2    48  GLY48      -0.2714
     81  N         19.6060   36.6840   12.1460 N.am   49  GLY49      -0.1939
     82  CA        20.4970   35.5690   12.3700 C.3    49  GLY49       0.2014
     83  C         21.4610   35.3990   11.2040 C.2    49  GLY49       0.2638
     84  O         21.7770   36.3480   10.4880 O.2    49  GLY49      -0.2714
     85  N         21.9300   34.1790   11.0110 N.am   50  ILE50      -0.1977
     86  CA        22.7680   33.8680    9.8680 C.3    50  ILE50       0.1596
     87  C         21.9440   34.1150    8.5980 C.2    50  ILE50       0.2287
     88  O         20.7950   33.6820    8.4950 O.2    50  ILE50      -0.2864
     89  CB        23.3150   32.4200    9.9480 C.3    50  ILE50       0.0276
     90  CG1       24.3960   32.3380   11.0340 C.3    50  ILE50       0.0022
     91  CG2       23.8650   31.9540    8.6120 C.3    50  ILE50       0.0022
     92  CD1       24.8150   30.9140   11.3970 C.3    50  ILE50       0.0001
     93  N         10.2940   31.5910    8.6630 N.3    80  THR80      -0.1204
     94  CA        11.4250   30.8120    9.1250 C.3    80  THR80       0.1979
     95  C         11.3840   29.4370    8.4400 C.2    80  THR80       0.2460
     96  O         10.3050   28.8890    8.2090 O.2    80  THR80      -0.2732
     97  CB        11.4240   30.6700   10.6680 C.3    80  THR80       0.1783
     98  OG1       12.5080   29.8290   11.0740 O.3    80  THR80      -0.2211
     99  CG2       10.0800   30.0490   11.2040 C.3    80  THR80       0.0376
    100  N         12.5570   28.8790    8.0980 N.am   81  PRO81      -0.2717
    101  CA        12.5840   27.5320    7.5120 C.3    81  PRO81       0.1535
    102  C         12.3120   26.3800    8.4890 C.2    81  PRO81       0.2598
    103  O         12.0800   25.2440    8.0620 O.2    81  PRO81      -0.2715
    104  CB        14.0120   27.4180    6.9530 C.3    81  PRO81       0.0310
    105  CG        14.8160   28.3710    7.7260 C.3    81  PRO81       0.0237
    106  CD        13.9050   29.4680    8.2020 C.3    81  PRO81       0.0939
    107  N         12.3530   26.6750    9.7810 N.am   82  VAL82      -0.1978
    108  CA        12.1760   25.6630   10.8120 C.3    82  VAL82       0.1596
    109  C         11.4760   26.2940   12.0180 C.2    82  VAL82       0.2287
    110  O         11.6690   27.4760   12.3140 O.2    82  VAL82      -0.2864
    111  CB        13.5470   25.0470   11.2030 C.3    82  VAL82       0.0276
    112  CG1       14.4700   26.0990   11.8230 C.3    82  VAL82       0.0022
    113  CG2       13.3750   23.8550   12.1400 C.3    82  VAL82       0.0022
    114  N         11.1650   27.0410   15.7570 N.3    84  ILE84      -0.1245
    115  CA        12.1840   27.2370   16.7800 C.3    84  ILE84       0.1561
    116  C         11.5580   27.5180   18.1600 C.2    84  ILE84       0.2260
    117  O         10.8450   28.5130   18.3370 O.2    84  ILE84      -0.2867
    118  CB        13.0900   28.4290   16.3970 C.3    84  ILE84       0.0252
    119  CG1       13.8420   28.1160   15.1000 C.3    84  ILE84       0.0019
    120  CG2       14.0680   28.7560   17.5440 C.3    84  ILE84       0.0019
    121  CD1       14.4400   29.3080   14.4180 C.3    84  ILE84       0.0001
@<TRIPOS>BOND
     1   104   101    1
     2   104   105    1
     3   101   100    1
     4   101   102    1
     5   105   106    1
     6   103   102    2
     7   100   106    1
     8   100    95   am
     9    96    95    2
    10    95    94    1
    11   102   107   am
    12    88    87    2
    13    87    86    1
    14    91    89    1
    15    93    94    1
    16    94    97    1
    17    11     9    1
    18   107   108    1
    19    86    89    1
    20    86    85    1
    21    89    90    1
    22     9    10    1
    23     9     8    2
    24    84    83    2
    25    97    98    1
    26    97    99    1
    27   108   111    1
    28   108   109    1
    29    85    83   am
    30    90    92    1
    31     8     7    1
    32   111   112    1
    33   111   113    1
    34    83    82    1
    35    72    71    2
    36   109   110    2
    37    81    82    1
    38    81    79   am
    39     7     6    1
    40    63    62    2
    41    78    79    1
    42    78    77    1
    43    71    77   am
    44    71    70    1
    45    79    80    2
    46    69    70    1
    47    62    61    1
    48     6     5    1
    49    74    76    1
    50    74    73    1
    51    60    61    1
    52    58    57    1
    53    70    73    1
    54    61    64    1
    55   121   119    1
    56     5     2    1
    57    73    75    1
    58    19    17    1
    59    56    55    2
    60   119   118    1
    61    57    54    1
    62    57    59    1
    63     1     2    1
    64    55    54    1
    65    18    17    1
    66    64    65    1
    67     2     3    1
    68   114   115    1
    69    54    53    1
    70    17    16    1
    71   118   115    1
    72   118   120    1
    73    65    66    1
    74    16    13    1
    75     4     3    2
    76   115   116    1
    77    12    13    1
    78    13    14    1
    79    26    25   ar
    80    66    67    1
    81   116   117    2
    82    67    68    1
    83    25    27   ar
    84    25    24    1
    85    14    15    2
    86    24    21    1
    87    36    33    1
    88    31    30    2
    89    48    47    2
    90    52    50   ar
    91    49    50    1
    92    49    46    1
    93    33    32    1
    94    33    34    1
    95    30    32   am
    96    30    29    1
    97    47    46    1
    98    21    20    1
    99    21    22    1
   100    50    51   ar
   101    29    28    1
   102    46    45    1
   103    45    39   am
   104    34    37   am
   105    34    35    2
   106    37    38    1
   107    22    23    2
   108    44    42   ar
   109    41    42    1
   110    41    38    1
   111    42    43   ar
   112    39    38    1
   113    39    40    2
