@<TRIPOS>MOLECULE
tmp/2psvB00.pdb
 112 105 0 0 0
SMALL
GASTEIGER

@<TRIPOS>ATOM
      1  N         19.3330   16.8550   15.1690 N.3     8  ARG8       -0.1245
      2  CA        18.6300   18.0730   15.5720 C.3     8  ARG8        0.1563
      3  C         17.6250   17.7430   16.6740 C.2     8  ARG8        0.2260
      4  O         16.9010   16.7360   16.5740 O.2     8  ARG8       -0.2867
      5  CB        17.9120   18.6840   14.3800 C.3     8  ARG8        0.0307
      6  CG        18.8460   19.2020   13.2980 C.3     8  ARG8        0.0489
      7  CD        18.1060   20.1130   12.3420 C.3     8  ARG8        0.2205
      8  NE        18.9720   20.6370   11.2900 N.pl3   8  ARG8       -0.0865
      9  CZ        18.7420   21.7590   10.6030 C.cat   8  ARG8        0.5346
     10  NH1       17.6720   22.5190   10.8610 N.pl3   8  ARG8        0.1354
     11  NH2       19.6010   22.1390    9.6610 N.pl3   8  ARG8        0.1354
     12  N         12.5020   22.8790   16.9090 N.3    23  LEU23      -0.1245
     13  CA        13.8300   22.7470   17.4960 C.3    23  LEU23       0.1561
     14  C         13.8260   23.2880   18.9090 C.2    23  LEU23       0.2260
     15  O         13.3800   24.4140   19.1270 O.2    23  LEU23      -0.2867
     16  CB        14.8410   23.5850   16.7100 C.3    23  LEU23       0.0270
     17  CG        15.4450   23.0660   15.4240 C.3    23  LEU23       0.0019
     18  CD1       16.3550   24.1310   14.8220 C.3    23  LEU23       0.0001
     19  CD2       16.2080   21.7960   15.6780 C.3    23  LEU23       0.0001
     20  N         15.9240   25.1240   21.0690 N.3    25  ASP25      -0.1239
     21  CA        17.0460   25.9340   20.5950 C.3    25  ASP25       0.1674
     22  C         17.5860   26.9120   21.6380 C.2    25  ASP25       0.2266
     23  O         17.0460   28.0020   21.8380 O.2    25  ASP25      -0.2867
     24  CB        16.6370   26.6990   19.3380 C.3    25  ASP25       0.1410
     25  CG        17.8240   27.2780   18.5990 C.2    25  ASP25       0.3668
     26  OD1       17.6370   27.7460   17.4580 O.co2  25  ASP25      -0.2456
     27  OD2       18.9510   27.2510   19.1440 O.co2  25  ASP25      -0.2456
     28  N         20.2150   28.6130   21.4220 N.3    27  GLY27      -0.1210
     29  CA        20.7920   29.7750   20.7590 C.3    27  GLY27       0.1956
     30  C         19.7860   30.8540   20.3750 C.2    27  GLY27       0.2612
     31  O         20.1820   31.9170   19.8860 O.2    27  GLY27      -0.2717
     32  N         18.5000   30.5700   20.5830 N.am   28  ALA28      -0.1965
     33  CA        17.3990   31.4620   20.1960 C.3    28  ALA28       0.1728
     34  C         16.8120   32.1840   21.3980 C.2    28  ALA28       0.2616
     35  O         16.2720   31.5470   22.3220 O.2    28  ALA28      -0.2715
     36  CB        16.3030   30.6680   19.5130 C.3    28  ALA28       0.0334
     37  N         16.8890   33.5160   21.3940 N.am   29  ASP29      -0.1957
     38  CA        16.2530   34.3110   22.4510 C.3    29  ASP29       0.1840
     39  C         14.7310   34.1680   22.3950 C.2    29  ASP29       0.2622
     40  O         14.0490   34.1910   23.4320 O.2    29  ASP29      -0.2715
     41  CB        16.5560   35.8060   22.2890 C.3    29  ASP29       0.1450
     42  CG        18.0170   36.1530   22.4350 C.2    29  ASP29       0.3671
     43  OD1       18.8340   35.3240   22.8920 O.co2  29  ASP29      -0.2456
     44  OD2       18.3400   37.3180   22.1130 O.co2  29  ASP29      -0.2456
     45  N         14.2230   34.0540   21.1720 N.am   30  ASP30      -0.1971
     46  CA        12.8030   34.1130   20.8650 C.3    30  ASP30       0.1709
     47  C         12.3310   32.8040   20.2540 C.2    30  ASP30       0.2293
     48  O         13.1210   32.0360   19.6920 O.2    30  ASP30      -0.2864
     49  CB        12.5330   35.2260   19.8530 C.3    30  ASP30       0.1436
     50  CG        13.0590   36.5760   20.2950 C.2    30  ASP30       0.3671
     51  OD1       12.7910   36.9750   21.4410 O.co2  30  ASP30      -0.2456
     52  OD2       13.7270   37.2440   19.4770 O.co2  30  ASP30      -0.2456
     53  N         10.1550   31.1770   17.3140 N.3    32  VAL32      -0.1245
     54  CA         9.8230   31.5970   15.9490 C.3    32  VAL32       0.1561
     55  C          9.1780   30.4310   15.2250 C.2    32  VAL32       0.2260
     56  O          9.7860   29.3680   15.0680 O.2    32  VAL32      -0.2867
     57  CB        11.0540   32.0740   15.1320 C.3    32  VAL32       0.0252
     58  CG1       10.5990   32.7710   13.8300 C.3    32  VAL32       0.0019
     59  CG2       11.9450   33.0050   15.9540 C.3    32  VAL32       0.0019
     60  N         13.5320   40.0130   13.1450 N.3    47  ILE47      -0.1231
     61  CA        14.5100   39.2100   13.8740 C.3    47  ILE47       0.1692
     62  C         15.5790   38.7270   12.9150 C.2    47  ILE47       0.2593
     63  O         15.3270   38.5130   11.7330 O.2    47  ILE47      -0.2718
     64  CB        13.8760   38.0180   14.6230 C.3    47  ILE47       0.0266
     65  CG1       13.1460   37.0730   13.6590 C.3    47  ILE47       0.0019
     66  CG2       12.9400   38.5310   15.7100 C.3    47  ILE47       0.0020
     67  CD1       12.5700   35.8580   14.3500 C.3    47  ILE47       0.0001
     68  N         16.7780   38.5640   13.4450 N.am   48  GLY48      -0.1942
     69  CA        17.9250   38.3130   12.6090 C.3    48  GLY48       0.2014
     70  C         18.7690   37.1810   13.1110 C.2    48  GLY48       0.2639
     71  O         18.7680   36.8480   14.2960 O.2    48  GLY48      -0.2714
     72  N         19.4810   36.5820   12.1720 N.am   49  GLY49      -0.1939
     73  CA        20.4610   35.5780   12.4740 C.3    49  GLY49       0.2014
     74  C         21.3950   35.4600   11.2930 C.2    49  GLY49       0.2638
     75  O         21.6250   36.4260   10.5690 O.2    49  GLY49      -0.2714
     76  N         21.9480   34.2760   11.0700 N.am   50  ILE50      -0.1977
     77  CA        23.0540   34.1270   10.1100 C.3    50  ILE50       0.1596
     78  C         22.9340   34.9420    8.7840 C.2    50  ILE50       0.2287
     79  O         23.7510   35.8410    8.5310 O.2    50  ILE50      -0.2864
     80  CB        23.3970   32.6220    9.9090 C.3    50  ILE50       0.0276
     81  CG1       24.4720   32.2330   10.9330 C.3    50  ILE50       0.0022
     82  CG2       23.8690   32.3270    8.4940 C.3    50  ILE50       0.0022
     83  CD1       24.6240   30.7550   11.1560 C.3    50  ILE50       0.0001
     84  N         10.2970   31.6000    8.6230 N.3    80  THR80      -0.1204
     85  CA        11.4400   30.8480    9.1140 C.3    80  THR80       0.1979
     86  C         11.4620   29.4780    8.4330 C.2    80  THR80       0.2460
     87  O         10.4100   28.8990    8.1720 O.2    80  THR80      -0.2732
     88  CB        11.4070   30.7080   10.6520 C.3    80  THR80       0.1783
     89  OG1       12.5500   29.9600   11.0880 O.3    80  THR80      -0.2211
     90  CG2       10.1160   30.0200   11.1470 C.3    80  THR80       0.0376
     91  N         12.6620   28.9660    8.1120 N.am   81  PRO81      -0.2717
     92  CA        12.7330   27.6530    7.4730 C.3    81  PRO81       0.1535
     93  C         12.4720   26.4950    8.4270 C.2    81  PRO81       0.2598
     94  O         12.2590   25.3710    7.9700 O.2    81  PRO81      -0.2715
     95  CB        14.1720   27.6000    6.9510 C.3    81  PRO81       0.0310
     96  CG        14.9320   28.4500    7.8890 C.3    81  PRO81       0.0237
     97  CD        13.9990   29.5590    8.2930 C.3    81  PRO81       0.0939
     98  N         12.4990   26.7710    9.7320 N.am   82  VAL82      -0.1978
     99  CA        12.3190   25.7500   10.7640 C.3    82  VAL82       0.1596
    100  C         11.6110   26.3590   11.9790 C.2    82  VAL82       0.2287
    101  O         11.7940   27.5480   12.2930 O.2    82  VAL82      -0.2864
    102  CB        13.6750   25.1480   11.2050 C.3    82  VAL82       0.0276
    103  CG1       14.3680   24.4820   10.0470 C.3    82  VAL82       0.0022
    104  CG2       14.5820   26.2150   11.8330 C.3    82  VAL82       0.0022
    105  N         11.2500   27.0920   15.7370 N.3    84  ILE84      -0.1245
    106  CA        12.2740   27.3200   16.7490 C.3    84  ILE84       0.1561
    107  C         11.6500   27.6160   18.1200 C.2    84  ILE84       0.2260
    108  O         10.9410   28.6200   18.2890 O.2    84  ILE84      -0.2867
    109  CB        13.1920   28.5140   16.3520 C.3    84  ILE84       0.0252
    110  CG1       13.9700   28.1890   15.0800 C.3    84  ILE84       0.0019
    111  CG2       14.1750   28.8740   17.4870 C.3    84  ILE84       0.0019
    112  CD1       14.5270   29.3620   14.3900 C.3    84  ILE84       0.0001
@<TRIPOS>BOND
     1    95    92    1
     2    95    96    1
     3    92    91    1
     4    92    93    1
     5    96    97    1
     6    94    93    2
     7    91    97    1
     8    91    86   am
     9    87    86    2
    10    93    98   am
    11    86    85    1
    12    82    80    1
    13    79    78    2
    14    84    85    1
    15    78    77    1
    16    85    88    1
    17    11     9    1
    18    98    99    1
    19    80    77    1
    20    80    81    1
    21   103   102    1
    22    77    76    1
    23    75    74    2
    24     9    10    1
    25     9     8    2
    26    88    89    1
    27    88    90    1
    28    99   102    1
    29    99   100    1
    30    81    83    1
    31    76    74   am
    32   102   104    1
    33     8     7    1
    34    74    73    1
    35    63    62    2
    36   100   101    2
    37    72    73    1
    38    72    70   am
    39     7     6    1
    40    69    70    1
    41    69    68    1
    42    62    68   am
    43    62    61    1
    44    70    71    2
    45    60    61    1
    46     6     5    1
    47    65    67    1
    48    65    64    1
    49    58    57    1
    50    61    64    1
    51     5     2    1
    52   112   110    1
    53    64    66    1
    54    18    17    1
    55    56    55    2
    56   110   109    1
    57    57    54    1
    58    57    59    1
    59     1     2    1
    60    55    54    1
    61    17    19    1
    62    17    16    1
    63     2     3    1
    64   105   106    1
    65    54    53    1
    66   109   106    1
    67   109   111    1
    68     4     3    2
    69    16    13    1
    70   106   107    1
    71    12    13    1
    72    26    25   ar
    73    13    14    1
    74   107   108    2
    75    25    27   ar
    76    25    24    1
    77    14    15    2
    78    24    21    1
    79    52    50   ar
    80    36    33    1
    81    48    47    2
    82    49    50    1
    83    49    46    1
    84    31    30    2
    85    33    32    1
    86    33    34    1
    87    47    46    1
    88    50    51   ar
    89    30    32   am
    90    30    29    1
    91    21    20    1
    92    21    22    1
    93    29    28    1
    94    46    45    1
    95    45    39   am
    96    37    34   am
    97    37    38    1
    98    34    35    2
    99    22    23    2
   100    44    42   ar
   101    41    42    1
   102    41    38    1
   103    39    38    1
   104    39    40    2
   105    42    43   ar
